data_fog_v1-3c_B_Ch_v2-4c_Cu_1_Ch_1B_4H_Ch
_audit_creation_date              2019-11-05
_audit_creation_method            'tobacco_3.0'
_symmetry_space_group_name_H-M    'P1'
_symmetry_Int_Tables_number       1
_symmetry_cell_setting            triclinic
loop_
_symmetry_equiv_pos_as_xyz
  x,y,z
_cell_length_a                    38.32001717012881
_cell_length_b                    38.319868488295086
_cell_length_c                    42.063288580434055
_cell_angle_alpha                 90.21769414702382
_cell_angle_beta                  89.78220364331088
_cell_angle_gamma                 120.26204823081036
loop_
_atom_site_label
_atom_site_type_symbol
_atom_site_fract_x
_atom_site_fract_y
_atom_site_fract_z
_atom_site_charge
C1         C    0.0249517386    0.3673759596    0.4750611177          -0.025
C2         C    0.0000326094    0.3348302909    0.5000198183          -0.025
C3         C   -0.0249191292    0.3424543314    0.5249587006          -0.025
C4         C   -0.0249517386    0.3826240404    0.5249388823          -0.025
C5         C   -0.0000326094    0.4151697091    0.4999801817          -0.025
C6         C    0.0249191292    0.4075456686    0.4750412994          -0.025
H7         H    0.0000549796    0.3050891032    0.5000362647          -0.025
H8         H   -0.0434225061    0.3882678106    0.5434001328          -0.025
H9         H    0.0433675265    0.4316430861    0.4565636024          -0.025
C10        C    0.6422838854    0.6760772518    0.8588700195          -0.025
C11        C    0.6672430005    0.6684267237    0.8339584387          -0.025
C12        C    0.6921496950    0.7009355799    0.8089693438          -0.025
C13        C    0.6920972743    0.7410949642    0.8088918295          -0.025
C14        C    0.6671381592    0.7487454924    0.8338034103          -0.025
C15        C    0.6422314647    0.7162366362    0.8587925052          -0.025
H16        H    0.6672835834    0.6386949494    0.8340140540          -0.025
H17        H    0.7105346975    0.7651599617    0.7903934086          -0.025
H18        H    0.6237534586    0.7219034130    0.8772353110          -0.025
C19        C    0.3085578390    0.0090094215    0.1918707465          -0.025
C20        C    0.3085041088    0.0491684889    0.1918550356          -0.025
C21        C    0.3334146833    0.0817262487    0.1668996322          -0.025
C22        C    0.3583789879    0.0741249411    0.1419599398          -0.025
C23        C    0.3584327181    0.0339658737    0.1419756508          -0.025
C24        C    0.3335221436    0.0014081139    0.1669310541          -0.025
H25        H    0.2900222606    0.0547988262    0.2103186576          -0.025
H26        H    0.3768192833    0.0982261399    0.1234864594          -0.025
H27        H    0.3335636964   -0.0283234222    0.1669409125          -0.025
C28        C    0.6282936827    0.6490094681    0.4753962318          -0.025
C29        C    0.5879273889    0.6086836507    0.4753835152          -0.025
C30        C    0.5801231953    0.5760808733    0.5002081729          -0.025
C31        C    0.6126852956    0.5838039132    0.5250455472          -0.025
C32        C    0.6530515895    0.6241297305    0.5250582638          -0.025
C33        C    0.6608557831    0.6567325080    0.5002336061          -0.025
H34        H    0.5638177925    0.6029631794    0.4569956403          -0.025
H35        H    0.6069081654    0.5596693896    0.5434222418          -0.025
H36        H    0.6907425097    0.6865875028    0.5002447863          -0.025
C37        C    0.3198977944    0.9573645768    0.8582131369          -0.025
C38        C    0.3276428479    0.9899417705    0.8333835929          -0.025
C39        C    0.2950405485    0.9821741768    0.8085693414          -0.025
C40        C    0.2546931957    0.9418293894    0.8085846339          -0.025
C41        C    0.2469481422    0.9092521957    0.8334141779          -0.025
C42        C    0.2795504415    0.9170197894    0.8582284294          -0.025
H43        H    0.3575137877    1.0198125763    0.8333705063          -0.025
H44        H    0.2305590260    0.9360793526    0.7902156426          -0.025
H45        H    0.2738136714    0.8928990204    0.8766105074          -0.025
C46        C    0.9620204785    0.3154451371    0.1416300230          -0.025
C47        C    0.9945880799    0.3231990464    0.1664711487          -0.025
C48        C    0.9868214658    0.2905950588    0.1912836893          -0.025
C49        C    0.9464872502    0.2502371619    0.1912551043          -0.025
C50        C    0.9139196489    0.2424832526    0.1664139786          -0.025
C51        C    0.9216862630    0.2750872402    0.1416014380          -0.025
H52        H    1.0244510584    0.3530777930    0.1664940770          -0.025
H53        H    0.9407379385    0.2261017425    0.2096228292          -0.025
H54        H    0.8975725963    0.2693439130    0.1232107848          -0.025
C55        C    0.3718251521    1.0205478033    0.5247675108          -0.025
C56        C    0.4120141256    1.0205536281    0.5247783184          -0.025
C57        C    0.4196557855    0.9956148451    0.4998388059          -0.025
C58        C    0.3871084718    0.9706702373    0.4748884858          -0.025
C59        C    0.3469194982    0.9706644126    0.4748776781          -0.025
C60        C    0.3392778384    0.9956031956    0.4998171906          -0.025
H61        H    0.4361127624    1.0390208906    0.5432498105          -0.025
H62        H    0.3927652849    0.9522090603    0.4564267687          -0.025
H63        H    0.3095223885    0.9955971100    0.4998074156          -0.025
C64        C    0.0137419770    0.3043647227    0.8078597299          -0.025
C65        C    0.0061223482    0.3293284636    0.8327877026          -0.025
C66        C    0.0386460973    0.3542081771    0.8577742490          -0.025
C67        C    0.0787894751    0.3541241498    0.8578328228          -0.025
C68        C    0.0864091038    0.3291604089    0.8329048501          -0.025
C69        C    0.0538853548    0.3042806953    0.8079183036          -0.025
H70        H   -0.0235975736    0.3293924463    0.8327461107          -0.025
H71        H    0.1028654971    0.3725416001    0.8763293572          -0.025
H72        H    0.0595292546    0.2857992623    0.7894633611          -0.025
C73        C    0.6801099465    0.6370418194    0.1417225189          -0.025
C74        C    0.7202537829    0.6369582776    0.1417411284          -0.025
C75        C    0.7528210651    0.6618651287    0.1666910559          -0.025
C76        C    0.7452445109    0.6868555214    0.1916223739          -0.025
C77        C    0.7051006745    0.6869390632    0.1916037645          -0.025
C78        C    0.6725333923    0.6620322122    0.1666538370          -0.025
H79        H    0.7258657934    0.6184571135    0.1232837064          -0.025
H80        H    0.7693527588    0.7052930605    0.2100918008          -0.025
H81        H    0.6428131339    0.6620958373    0.1666418322          -0.025
C82        C    0.6277816057    0.9702428236    0.4751216381          -0.025
C83        C    0.6603448874    0.9951981240    0.5000582987          -0.025
C84        C    0.6527286547    1.0201663889    0.5249866147          -0.025
C85        C    0.6125491403    1.0201793533    0.5249782700          -0.025
C86        C    0.5799858586    0.9952240529    0.5000416094          -0.025
C87        C    0.5876020913    0.9702557880    0.4751132935          -0.025
H88        H    0.6900933356    0.9951903001    0.5000662493          -0.025
H89        H    0.6069111499    1.0386623545    0.5434316987          -0.025
H90        H    0.5634916336    0.9517806107    0.4566519143          -0.025
C91        C    0.3191085744    0.3529140457    0.8587416309          -0.025
C92        C    0.3267169910    0.3279287742    0.8338267978          -0.025
C93        C    0.2941770217    0.3030176952    0.8088598096          -0.025
C94        C    0.2540286356    0.3030918878    0.8088076545          -0.025
C95        C    0.2464202190    0.3280771593    0.8337224876          -0.025
C96        C    0.2789601884    0.3529882382    0.8586894758          -0.025
H97        H    0.3564406198    0.3278720710    0.8338636387          -0.025
H98        H    0.2299406064    0.2846512189    0.7903255983          -0.025
H99        H    0.2733245888    0.3714856103    0.8771346912          -0.025
C100       C    0.9859160889    0.6863408788    0.1919533183          -0.025
C101       C    0.9457327615    0.6863463874    0.1919578043          -0.025
C102       C    0.9131688240    0.6614089887    0.1670141755          -0.025
C103       C    0.9207882138    0.6364660813    0.1420660608          -0.025
C104       C    0.9609715412    0.6364605727    0.1420615748          -0.025
C105       C    0.9935354787    0.6613979715    0.1670052035          -0.025
H106       H    0.9400890357    0.7048123911    0.2104276631          -0.025
H107       H    0.8966824418    0.6180059290    0.1236012967          -0.025
H108       H    1.0232849765    0.6613921201    0.1670001088          -0.025
C109       C    0.3460548019    0.3664960227    0.4752065835          -0.025
C110       C    0.3383021926    0.3339079861    0.5000279397          -0.025
C111       C    0.3708750786    0.3416865525    0.5248735816          -0.025
C112       C    0.4112005739    0.3820531556    0.5248978673          -0.025
C113       C    0.4189531831    0.4146411921    0.5000765111          -0.025
C114       C    0.3863802971    0.4068626257    0.4752308692          -0.025
H115       H    0.3084474341    0.3040210287    0.5000117248          -0.025
H116       H    0.4353129700    0.3878113151    0.5432900957          -0.025
H117       H    0.3921226595    0.4309914235    0.4568548557          -0.025
C118       C    0.0127266802    0.6998880104    0.8085838425          -0.025
C119       C    0.0530573952    0.7402494246    0.8085792849          -0.025
C120       C    0.0856584009    0.7480334184    0.8333995639          -0.025
C121       C    0.0779286917    0.7154559979    0.8582244005          -0.025
C122       C    0.0375979767    0.6750945836    0.8582289582          -0.025
C123       C    0.0049969709    0.6673105899    0.8334086792          -0.025
H124       H    0.0587828044    0.7643703627    0.7902006926          -0.025
H125       H    0.1020619037    0.7212181750    0.8765978538          -0.025
H126       H   -0.0248616503    0.6374274747    0.8334138181          -0.025
C127       C    0.6797207544    0.0330654076    0.1416105996          -0.025
C128       C    0.7200767656    0.0734015189    0.1415864957          -0.025
C129       C    0.7526816430    0.0811634758    0.1663966251          -0.025
C130       C    0.7449305092    0.0485893213    0.1912308584          -0.025
C131       C    0.7045744981    0.0082532100    0.1912549623          -0.025
C132       C    0.6719696207    0.0004912532    0.1664448330          -0.025
H133       H    0.7258180377    0.0975200371    0.1232009454          -0.025
H134       H    0.7690665873    0.0543351855    0.2095967983          -0.025
H135       H    0.6420922704   -0.0293731293    0.1664644433          -0.025
C136       C    0.9744117073    0.6231781799    0.5247476378          -0.025
C137       C    0.9993517146    0.6557533542    0.4998144880          -0.025
C138       C    1.0243257385    0.6481594222    0.4748767662          -0.025
C139       C    1.0243597551    0.6079903159    0.4748721942          -0.025
C140       C    0.9994197478    0.5754151416    0.4998053439          -0.025
C141       C    0.9744457239    0.5830090736    0.5247430657          -0.025
H142       H    0.9993283040    0.6854940978    0.4998161004          -0.025
H143       H    1.0428470196    0.6023688337    0.4564118027          -0.025
H144       H    0.9559818700    0.5588898122    0.5432018449          -0.025
C145       C    0.6906942731    0.9813230384    0.8077394513          -0.025
C146       C    0.6907755077    0.9411781124    0.8078012330          -0.025
C147       C    0.6658710087    0.9086452184    0.8327749274          -0.025
C148       C    0.6408852753    0.9162572506    0.8576868399          -0.025
C149       C    0.6408040407    0.9564021767    0.8576250582          -0.025
C150       C    0.6657085397    0.9889350706    0.8326513638          -0.025
H151       H    0.7092732222    0.9355398364    0.7893581805          -0.025
H152       H    0.6224494773    0.8921744590    0.8761738604          -0.025
H153       H    0.6656466230    1.0186561382    0.8326073958          -0.025
C154       C    0.3576310403    0.3147015375    0.1415145172          -0.025
C155       C    0.3576937781    0.2745469977    0.1415255282          -0.025
C156       C    0.3327709286    0.2419753117    0.1664681976          -0.025
C157       C    0.3077853414    0.2495581654    0.1913998558          -0.025
C158       C    0.3077226037    0.2897127051    0.1913888448          -0.025
C159       C    0.3326454531    0.3222843912    0.1664461754          -0.025
H160       H    0.3761913830    0.2689303227    0.1230678538          -0.025
H161       H    0.2893359593    0.2254466575    0.2098639098          -0.025
H162       H    0.3325972303    0.3520125740    0.1664397960          -0.025
O163       O    1.0415553396    0.4805308321    0.9735476820          -0.025
O164       O    1.0237783718    0.5432397821    1.0374835898          -0.025
O165       O    1.0239640645    0.4717305046    1.0373289706          -0.025
O166       O    1.0413696398    0.5520453253    0.9737023150          -0.025
O167       O    0.9757120904    0.5188120012    0.9625983264          -0.025
O168       O    0.9583079043    0.4384978774    1.0262203522          -0.025
O169       O    0.9581208224    0.5100064580    1.0263796011          -0.025
O170       O    0.9758977903    0.4472975079    0.9624436933          -0.025
Cu171     Cu    1.0386579378    0.5149194020    1.0065309615             1.0
Cu172     Cu    0.9610182243    0.4756178881    0.9933963217             1.0
C173       C    1.0113467518    0.4546669893    0.9585687800          -0.025
C174       C    0.9883294102    0.5358703008    1.0413585032          -0.025
C175       C    0.9885731603    0.4432732038    1.0411531267          -0.025
C176       C    1.0111030018    0.5472640862    0.9587741564          -0.025
O177       O    0.6907250446    0.8768003126    0.3708183595          -0.025
O178       O    0.7084247431    0.8138832045    0.3070271289          -0.025
O179       O    0.7083444478    0.8854453579    0.3070415755          -0.025
O180       O    0.6908053530    0.8052329465    0.3708039115          -0.025
O181       O    0.6251531480    0.7720488972    0.3596803032          -0.025
O182       O    0.6426910660    0.8522607314    0.2959226330          -0.025
O183       O    0.6427725381    0.7806991552    0.2959035206          -0.025
O184       O    0.6250728396    0.8436162633    0.3596947512          -0.025
Cu185     Cu    0.7055666077    0.8483686386    0.3399358226             1.0
Cu186     Cu    0.6279309750    0.8091308292    0.3267860575             1.0
C187       C    0.6552884188    0.8694852850    0.3746618371          -0.025
C188       C    0.6782091639    0.7880141828    0.2920600430          -0.025
C189       C    0.6781054669    0.8806815708    0.2920845120          -0.025
C190       C    0.6553921158    0.7768178969    0.3746373682          -0.025
O191       O    0.3745783341    0.1470854865    0.6402853955          -0.025
O192       O    0.3568061759    0.2098501615    0.7041724717          -0.025
O193       O    0.3569671415    0.1383284672    0.7040634347          -0.025
O194       O    0.3744173632    0.2186123974    0.6403944431          -0.025
O195       O    0.3087632772    0.1853891150    0.6292778459          -0.025
O196       O    0.2913144460    0.1051058785    0.6929422079          -0.025
O197       O    0.2911520898    0.1766268791    0.6930558744          -0.025
O198       O    0.3089242481    0.1138622041    0.6291687983          -0.025
Cu199     Cu    0.3716830210    0.1815010042    0.6732454086             1.0
Cu200     Cu    0.2940474030    0.1422113614    0.6600958613             1.0
C201       C    0.3443707686    0.1212184484    0.6253073894          -0.025
C202       C    0.3213596554    0.2024939171    0.7080338805          -0.025
C203       C    0.3215713874    0.1098807375    0.7078875300          -0.025
C204       C    0.3441590366    0.2138316281    0.6254537400          -0.025
O205       O    0.5148939839    0.5521417069   -0.0259189013          -0.025
O206       O    0.4517654799    0.4714129398    0.0377179507          -0.025
O207       O    0.5236632614    0.5432898884    0.0377538421          -0.025
O208       O    0.4429909584    0.4802595224   -0.0259547927          -0.025
O209       O    0.4756739835    0.4475619967   -0.0374612560          -0.025
O210       O    0.5563455927    0.5105930597    0.0262427575          -0.025
O211       O    0.4844485050    0.4387154141    0.0262114873          -0.025
O212       O    0.5475770089    0.5194441813   -0.0374253647          -0.025
Cu213     Cu    0.4803458452    0.5147592448    0.0069515707             1.0
Cu214     Cu    0.5189966436    0.4760978763   -0.0066589847             1.0
C215       C    0.5405445340    0.5476961162   -0.0410549506          -0.025
C216       C    0.4587979548    0.4431610049    0.0413475366          -0.025
C217       C    0.5518981507    0.5362375116    0.0413888763          -0.025
C218       C    0.4474443381    0.4546196095   -0.0410962903          -0.025
O219       O    0.1817392614    0.8852446014    0.3072314807          -0.025
O220       O    0.1186510410    0.8045736666    0.3709169960          -0.025
O221       O    0.1905396641    0.8764597996    0.3709105452          -0.025
O222       O    0.1098453950    0.8133532318    0.3072379347          -0.025
O223       O    0.1425361594    0.7806570979    0.2957544328          -0.025
O224       O    0.2232297323    0.8437643578    0.3594224216          -0.025
O225       O    0.1513418053    0.7718775327    0.3594334942          -0.025
O226       O    0.2144300258    0.8525484675    0.2957479789          -0.025
Cu227     Cu    0.1472105594    0.8478909304    0.3401241902             1.0
Cu228     Cu    0.1858705073    0.8092312038    0.3265407847             1.0
C229       C    0.2073877417    0.8807911799    0.2920997370          -0.025
C230       C    0.1256933250    0.7763309543    0.3745652379          -0.025
C231       C    0.2187816586    0.8694193483    0.3745517466          -0.025
C232       C    0.1142994082    0.7877027858    0.2921132283          -0.025
O233       O    0.8093510626    0.1143158630    0.6288272355          -0.025
O234       O    0.8900365204    0.1773855728    0.6925084327          -0.025
O235       O    0.8181454656    0.1055018720    0.6925022241          -0.025
O236       O    0.8812473612    0.1862047999    0.6288334449          -0.025
O237       O    0.8485598530    0.2188995581    0.6403337080          -0.025
O238       O    0.7854573714    0.1381972206    0.7039978283          -0.025
O239       O    0.8573490122    0.2100803310    0.7040086958          -0.025
O240       O    0.7766635544    0.1470106212    0.6403274987          -0.025
Cu241     Cu    0.8526786425    0.1428684906    0.6596203803             1.0
Cu242     Cu    0.8140214323    0.1815277034    0.6732155511             1.0
C243       C    0.7811096601    0.1213637349    0.6251883139          -0.025
C244       C    0.8855904147    0.2030324591    0.7076476175          -0.025
C245       C    0.7924974262    0.1099487209    0.7076338146          -0.025
C246       C    0.8742026486    0.2144474731    0.6252021168          -0.025
O247       O    0.5233569044    0.9712550853    1.0372961978          -0.025
O248       O    0.4430312702    0.9538279568    0.9736812465          -0.025
O249       O    0.5145533121    0.9536680136    0.9735142441          -0.025
O250       O    0.4518296455    0.9714150328    1.0374632121          -0.025
O251       O    0.4850430343    1.0370731011    1.0263598922          -0.025
O252       O    0.5477672868    1.0193272565    0.9624155904          -0.025
O253       O    0.4762446590    1.0194860251    0.9625779267          -0.025
O254       O    0.5565702932    1.0369131536    1.0261928780          -0.025
Cu255     Cu    0.4801612546    0.9565492786    1.0064999531             1.0
Cu256     Cu    0.5194403087    1.0341918318    0.9933741713             1.0
C257       C    0.5518081968    1.0066544519    1.0411238268          -0.025
C258       C    0.4477933666    0.9840866584    0.9587502976          -0.025
C259       C    0.5404084996    0.9838792631    0.9585398046          -0.025
C260       C    0.4591930638    1.0068618472    1.0413343199          -0.025
O261       O    0.1095466893    0.2868064828    0.3070184610          -0.025
O262       O    0.1897712186    0.3042737899    0.3707397974          -0.025
O263       O    0.1182465018    0.3044279309    0.3707948263          -0.025
O264       O    0.1810766163    0.2866523241    0.3069634307          -0.025
O265       O    0.2143034708    0.3523048835    0.2958402558          -0.025
O266       O    0.1514726695    0.3700790989    0.3596670220          -0.025
O267       O    0.2229980731    0.3699263492    0.3596166225          -0.025
O268       O    0.1427735437    0.3524590421    0.2958952861          -0.025
Cu269     Cu    0.1466287153    0.2895495028    0.3398962007             1.0
Cu270     Cu    0.1859160471    0.3671833292    0.3267388828             1.0
C271       C    0.1143313009    0.3170582363    0.2920616048          -0.025
C272       C    0.2182134614    0.3396745957    0.3745734787          -0.025
C273       C    0.1255930650    0.3398709005    0.3746395806          -0.025
C274       C    0.2069516974    0.3168619315    0.2919955029          -0.025
O275       O    0.8180592054    0.7032760048    0.6931757295          -0.025
O276       O    0.8807810615    0.6854833360    0.6292620063          -0.025
O277       O    0.8092677716    0.6856604878    0.6293985230          -0.025
O278       O    0.8895777112    0.7030988465    0.6930392002          -0.025
O279       O    0.8563490391    0.6374452836    0.7041587326          -0.025
O280       O    0.7760397958    0.6200083157    0.6405226849          -0.025
O281       O    0.8475523894    0.6198297731    0.6403815387          -0.025
O282       O    0.7848305332    0.6376224418    0.7042952620          -0.025
Cu283     Cu    0.8524538042    0.7003703881    0.6602021244             1.0
Cu284     Cu    0.8131577906    0.6227353897    0.6733551438             1.0
C285       C    0.7921957857    0.6730717251    0.7081591325          -0.025
C286       C    0.8734158090    0.6500340527    0.6253981358          -0.025
C287       C    0.7808135156    0.6502667449    0.6255800702          -0.025
C288       C    0.8847980791    0.6728390329    0.7079771980          -0.025
C729       C    0.2493876200    0.3054338219    0.2060920731          -0.025
C730       C    0.2825807014    0.2964863189    0.2164897678          -0.025
C731       C    0.2905302320    0.2943398153    0.2520898686          -0.025
C732       C    0.2652866811    0.3011408148    0.2772922746          -0.025
C733       C    0.2320935996    0.3100883178    0.2668945798          -0.025
C734       C    0.2241440691    0.3122348213    0.2312944791          -0.025
H735       H    0.2435029025    0.3070227920    0.1797387517          -0.025
H736       H    0.3150998845    0.2877168375    0.2597873319          -0.025
H737       H    0.2711713985    0.2995518446    0.3036455959          -0.025
H738       H    0.1995744165    0.3188577992    0.2235970157          -0.025
C719       C    0.4203554440    0.3480134437    0.1018057855          -0.025
C720       C    0.3828777946    0.3467592969    0.1165173018          -0.025
C721       C    0.3707368482    0.3776771244    0.1061425432          -0.025
C722       C    0.3960735512    0.4098490987    0.0810562682          -0.025
C723       C    0.4335512005    0.4111032454    0.0663447520          -0.025
C724       C    0.4456921469    0.3801854179    0.0767195106          -0.025
H725       H    0.4293428978    0.3251262208    0.1094858017          -0.025
H726       H    0.3429956412    0.3767497879    0.1170316269          -0.025
H727       H    0.3870860973    0.4327363216    0.0733762521          -0.025
H728       H    0.4734333540    0.3811127544    0.0658304269          -0.025
C709       C    0.6979582838    1.0354093456    0.7646229253          -0.025
C710       C    0.7161280883    1.0134580140    0.7827297322          -0.025
C711       C    0.7597656541    1.0236845480    0.7757934398          -0.025
C712       C    0.7852334155    1.0558624137    0.7507503406          -0.025
C713       C    0.7670636110    1.0778137454    0.7326435337          -0.025
C714       C    0.7234260452    1.0675872114    0.7395798260          -0.025
H715       H    0.6656551507    1.0278390542    0.7697575833          -0.025
H716       H    0.7732162598    1.0074365740    0.7891958145          -0.025
H717       H    0.8175365486    1.0634327052    0.7456156826          -0.025
H718       H    0.7099754395    1.0838351854    0.7261774514          -0.025
C699       C    0.6327729741    1.0049601830    0.8987449649          -0.025
C700       C    0.6157363564    0.9632629089    0.8828223824          -0.025
C701       C    0.5735696525    0.9284434459    0.8921598488          -0.025
C702       C    0.5484395662    0.9353212568    0.9174198978          -0.025
C703       C    0.5654761839    0.9770185309    0.9333424803          -0.025
C704       C    0.6076428878    1.0118379939    0.9240050139          -0.025
H705       H    0.6639872874    1.0307356297    0.8918328145          -0.025
H706       H    0.5609578742    0.8975781699    0.8803743053          -0.025
H707       H    0.5172252529    0.9095458102    0.9243320483          -0.025
H708       H    0.6202546661    1.0427032699    0.9357905574          -0.025
C689       C    0.9551497829    0.6248718226    0.5854018498          -0.025
C690       C    0.9492055697    0.6298807573    0.5498675718          -0.025
C691       C    0.9179695449    0.6416150511    0.5395386088          -0.025
C692       C    0.8926777334    0.6483404101    0.5647439238          -0.025
C693       C    0.8986219466    0.6433314753    0.6002782018          -0.025
C694       C    0.9298579713    0.6315971816    0.6106071648          -0.025
H695       H    0.9782725545    0.6161853974    0.5930479653          -0.025
H696       H    0.9135686709    0.6453230181    0.5132359356          -0.025
H697       H    0.8695549618    0.6570268353    0.5570978083          -0.025
H698       H    0.9342588454    0.6278892146    0.6369098380          -0.025
C679       C    1.0611283984    0.6674784729    0.4185249095          -0.025
C680       C    1.0496249016    0.6801482719    0.4498411725          -0.025
C681       C    1.0635060349    0.7249149873    0.4560372651          -0.025
C682       C    1.0888906651    0.7570119036    0.4309170947          -0.025
C683       C    1.1003941619    0.7443421045    0.3996008316          -0.025
C684       C    1.0865130286    0.6995753892    0.3934047390          -0.025
H685       H    1.0508527542    0.6343394758    0.4139381915          -0.025
H686       H    1.0549916268    0.7342945442    0.4792176478          -0.025
H687       H    1.0991663093    0.7901509006    0.4355038126          -0.025
H688       H    1.0950274367    0.6901958322    0.3702243563          -0.025
C669       C    0.6202461443   -0.0159557424    0.1024026327          -0.025
C670       C    0.6477028868    0.0264544657    0.1164576964          -0.025
C671       C    0.6432212180    0.0622701378    0.1054222769          -0.025
C672       C    0.6112828068    0.0556756019    0.0803317938          -0.025
C673       C    0.5838260644    0.0132653938    0.0662767301          -0.025
C674       C    0.5883077332   -0.0225502783    0.0773121496          -0.025
H675       H    0.6235637433   -0.0424686425    0.1105717094          -0.025
H676       H    0.6635444593    0.0936631566    0.1158254358          -0.025
H677       H    0.6079652079    0.0821885020    0.0721627170          -0.025
H678       H    0.5679844919   -0.0539432971    0.0669089906          -0.025
C659       C    0.6926213472   -0.0646768418    0.2061393841          -0.025
C660       C    0.6979489557   -0.0236796288    0.2164939087          -0.025
C661       C    0.6966675909   -0.0145353965    0.2520242617          -0.025
C662       C    0.6900586177   -0.0463883773    0.2772000901          -0.025
C663       C    0.6847310093   -0.0873855903    0.2668455656          -0.025
C664       C    0.6860123740   -0.0965298226    0.2313152126          -0.025
H665       H    0.6935698900   -0.0714459489    0.1798376943          -0.025
H666       H    0.7006110272    0.0158108843    0.2596897684          -0.025
H667       H    0.6891100750   -0.0396192703    0.3035017800          -0.025
H668       H    0.6820689378   -0.1268761034    0.2236497059          -0.025
C649       C   -0.0917110681    0.6461679024    0.7573663182          -0.025
C650       C   -0.0831898174    0.6796076105    0.7331524152          -0.025
C651       C   -0.0427163697    0.7198032298    0.7340666173          -0.025
C652       C   -0.0107641726    0.7265591409    0.7591947224          -0.025
C653       C   -0.0192854233    0.6931194328    0.7834086254          -0.025
C654       C   -0.0597588710    0.6529238135    0.7824944233          -0.025
H655       H   -0.1216719320    0.6164127037    0.7566895712          -0.025
H656       H   -0.0364076894    0.7445564550    0.7161436012          -0.025
H657       H    0.0191966913    0.7563143396    0.7598714693          -0.025
H658       H   -0.0660675513    0.6281705883    0.8004174393          -0.025
C639       C   -0.0058602979    0.6001228358    0.8809837398          -0.025
C640       C    0.0309674475    0.6431042214    0.8833910077          -0.025
C641       C    0.0611782346    0.6541607205    0.9109088252          -0.025
C642       C    0.0545612763    0.6222358340    0.9360193747          -0.025
C643       C    0.0177335310    0.5792544485    0.9336121068          -0.025
C644       C   -0.0124772561    0.5681979494    0.9060942894          -0.025
H645       H   -0.0282241273    0.5919381547    0.8606134074          -0.025
H646       H    0.0884389569    0.6859757392    0.9126915472          -0.025
H647       H    0.0769251057    0.6304205152    0.9563897071          -0.025
H648       H   -0.0397379785    0.5363829306    0.9043115674          -0.025
C629       C    0.3041309954    0.3933077810    0.4432898893          -0.025
C630       C    0.3140622658    0.3597839101    0.4500229597          -0.025
C631       C    0.2920654021    0.3195614383    0.4316231014          -0.025
C632       C    0.2601372679    0.3128628374    0.4064901729          -0.025
C633       C    0.2502059975    0.3463867083    0.3997571026          -0.025
C634       C    0.2722028612    0.3866091800    0.4181569608          -0.025
H635       H    0.3204143881    0.4230828575    0.4569105636          -0.025
H636       H    0.2994157970    0.2947459153    0.4366063139          -0.025
H637       H    0.2438538752    0.2830877609    0.3928694986          -0.025
H638       H    0.2648524663    0.4114247030    0.4131737484          -0.025
C619       C    0.3604374565    0.2693405269    0.5397133897          -0.025
C620       C    0.3641895861    0.3096918006    0.5500430245          -0.025
C621       C    0.3612691872    0.3181103639    0.5854932955          -0.025
C622       C    0.3545966587    0.2861776536    0.6106139319          -0.025
C623       C    0.3508445291    0.2458263800    0.6002842971          -0.025
C624       C    0.3537649279    0.2374078166    0.5648340260          -0.025
H625       H    0.3625993102    0.2631086034    0.5134709812          -0.025
H626       H    0.3640464079    0.3479784997    0.5931403764          -0.025
H627       H    0.3524348050    0.2924095772    0.6368563404          -0.025
H628       H    0.3509877073    0.2075396809    0.5571869452          -0.025
C609       C    1.0942267506    0.7476052253    0.2371651291          -0.025
C610       C    1.0822602331    0.7624070395    0.2671174508          -0.025
C611       C    1.0381412311    0.7518236465    0.2719855949          -0.025
C612       C    1.0059887465    0.7264384394    0.2469014175          -0.025
C613       C    1.0179552639    0.7116366251    0.2169490958          -0.025
C614       C    1.0620742659    0.7222200181    0.2120809516          -0.025
H615       H    1.1268862715    0.7554396850    0.2335614380          -0.025
H616       H    1.0292822612    0.7627795619    0.2941563510          -0.025
H617       H    0.9733292255    0.7186039797    0.2505051086          -0.025
H618       H    1.0709332358    0.7112641027    0.1899101955          -0.025
C599       C    0.9861699199    0.5853060117    0.1266154000          -0.025
C600       C    0.9677991302    0.6113566789    0.1169295300          -0.025
C601       C    0.9562796860    0.6122161040    0.0820241690          -0.025
C602       C    0.9631310315    0.5870248618    0.0568046779          -0.025
C603       C    0.9815018212    0.5609741946    0.0664905479          -0.025
C604       C    0.9930212654    0.5601147695    0.1013959089          -0.025
H605       H    0.9946973007    0.5846698140    0.1524544335          -0.025
H606       H    0.9426813282    0.6314987425    0.0748536178          -0.025
H607       H    0.9546036507    0.5876610595    0.0309656444          -0.025
H608       H    1.0066196232    0.5408321310    0.1085664601          -0.025
C589       C    0.3341227451    0.2991563583    0.7583119955          -0.025
C590       C    0.3009592102    0.2779365635    0.7837032898          -0.025
C591       C    0.2746048036    0.2315360113    0.7838381394          -0.025
C592       C    0.2814139319    0.2063552540    0.7585816946          -0.025
C593       C    0.3145774668    0.2275750489    0.7331904003          -0.025
C594       C    0.3409318734    0.2739756010    0.7330555508          -0.025
H595       H    0.3536318513    0.3335048190    0.7582121718          -0.025
H596       H    0.2500564389    0.2158277262    0.8026326895          -0.025
H597       H    0.2619048257    0.1720067934    0.7586815183          -0.025
H598       H    0.3654802382    0.2896838862    0.7142610007          -0.025
C579       C    0.3386937833    0.3909712811    0.9146008813          -0.025
C580       C    0.3511472211    0.3783045411    0.8837467999          -0.025
C581       C    0.3957298941    0.3911000876    0.8779685889          -0.025
C582       C    0.4278591292    0.4165623741    0.9030444594          -0.025
C583       C    0.4154056914    0.4292291140    0.9338985408          -0.025
C584       C    0.3708230184    0.4164335675    0.9396767518          -0.025
H585       H    0.3056910253    0.3814992531    0.9188782583          -0.025
H586       H    0.4049492954    0.3817246167    0.8551303246          -0.025
H587       H    0.4608618871    0.4260344020    0.8987670824          -0.025
H588       H    0.3616036171    0.4258090384    0.9625150160          -0.025
C569       C    0.6273485608    0.9028794483    0.4585794427          -0.025
C570       C    0.6346467163    0.9450959031    0.4500490265          -0.025
C571       C    0.6488331677    0.9620805091    0.4163613215          -0.025
C572       C    0.6557214637    0.9368486603    0.3912040326          -0.025
C573       C    0.6484233082    0.8946322055    0.3997344487          -0.025
C574       C    0.6342368568    0.8776475995    0.4334221538          -0.025
H575       H    0.6168469020    0.8903064283    0.4835170945          -0.025
H576       H    0.6542356854    0.9933295164    0.4100460717          -0.025
H577       H    0.6662231225    0.9494216803    0.3662663808          -0.025
H578       H    0.6288343391    0.8463985922    0.4397374036          -0.025
C559       C    0.7097906710    1.0288384587    0.5655136986          -0.025
C560       C    0.6847659015    1.0454200028    0.5499917668          -0.025
C561       C    0.6918943879    1.0873466061    0.5595655325          -0.025
C562       C    0.7240476438    1.1126916651    0.5846612300          -0.025
C563       C    0.7490724133    1.0961101210    0.6001831618          -0.025
C564       C    0.7419439269    1.0541835177    0.5906093961          -0.025
H565       H    0.7045137395    0.9978018823    0.5584266252          -0.025
H566       H    0.6733713681    1.0996215330    0.5480765568          -0.025
H567       H    0.7293245753    1.1437282415    0.5917483034          -0.025
H568       H    0.7604669467    1.0419085908    0.6020983718          -0.025
C549       C    0.6586393857    0.7130028269    0.2170713178          -0.025
C550       C    0.6983922507    0.7121535164    0.2166638400          -0.025
C551       C    0.7314077843    0.7366273125    0.2414244260          -0.025
C552       C    0.7246704527    0.7619504191    0.2665924897          -0.025
C553       C    0.6849175877    0.7627997296    0.2669999675          -0.025
C554       C    0.6519020541    0.7383259335    0.2422393815          -0.025
H555       H    0.6341993154    0.6948858609    0.1987420528          -0.025
H556       H    0.7608337585    0.7359994304    0.2411235959          -0.025
H557       H    0.7491105230    0.7800673851    0.2849217546          -0.025
H558       H    0.6224760799    0.7389538156    0.2425402115          -0.025
C539       C    0.5708329241    0.5650879860    0.1003462609          -0.025
C540       C    0.5838790303    0.5613819252    0.0664158882          -0.025
C541       C    0.6290501548    0.5829336047    0.0576253249          -0.025
C542       C    0.6611751731    0.6081913450    0.0827651343          -0.025
C543       C    0.6481290670    0.6118974058    0.1166955070          -0.025
C544       C    0.6029579425    0.5903457263    0.1254860704          -0.025
H545       H    0.5373945592    0.5491341454    0.1068535611          -0.025
H546       H    0.6387082657    0.5801910738    0.0325099053          -0.025
H547       H    0.6946135380    0.6241451857    0.0762578342          -0.025
H548       H    0.5932998315    0.5930882573    0.1506014899          -0.025
C529       C    0.8205560603    0.6763776278    0.1373107594          -0.025
C530       C    0.7928646866    0.6617512169    0.1667717485          -0.025
C531       C    0.8053035709    0.6470106477    0.1963136048          -0.025
C532       C    0.8454338288    0.6468964895    0.1963944720          -0.025
C533       C    0.8731252025    0.6615229004    0.1669334829          -0.025
C534       C    0.8606863182    0.6762634696    0.1373916266          -0.025
H535       H    0.8113480550    0.6872894777    0.1154421125          -0.025
H536       H    0.7848069082    0.6361837638    0.2181214592          -0.025
H537       H    0.8546418341    0.6359846396    0.2182631189          -0.025
H538       H    0.8811829809    0.6870903535    0.1155837723          -0.025
C519       C   -0.0610841616    0.2098305692    0.7511684357          -0.025
C520       C   -0.0824441565    0.2283082279    0.7326439818          -0.025
C521       C   -0.0716937991    0.2721762495    0.7392292199          -0.025
C522       C   -0.0395834467    0.2975666125    0.7643389117          -0.025
C523       C   -0.0182234518    0.2790889539    0.7828633655          -0.025
C524       C   -0.0289738093    0.2352209322    0.7762781275          -0.025
H525       H   -0.0690422184    0.1773568389    0.7462936491          -0.025
H526       H   -0.0875040512    0.2858547351    0.7255176934          -0.025
H527       H   -0.0316253900    0.3300403429    0.7692136983          -0.025
H528       H   -0.0131635571    0.2215424467    0.7899896540          -0.025
C509       C    0.1602986919    0.3565458676    0.8562178234          -0.025
C510       C    0.1263651195    0.3288899131    0.8331090205          -0.025
C511       C    0.1324810890    0.3009628296    0.8102048659          -0.025
C512       C    0.1725306309    0.3006917006    0.8104095142          -0.025
C513       C    0.2064642033    0.3283476551    0.8335183172          -0.025
C514       C    0.2003482338    0.3562747386    0.8564224718          -0.025
H515       H    0.1557712859    0.3772191631    0.8731728470          -0.025
H516       H    0.1073637729    0.2804911065    0.7930990873          -0.025
H517       H    0.1770580369    0.2800184050    0.7934544907          -0.025
H518       H    0.2254655499    0.3767464616    0.8735282504          -0.025
C499       C    0.0210522891    0.4112086089    0.8726122133          -0.025
C500       C    0.0318353597    0.3792709981    0.8829208263          -0.025
C501       C    0.0357794952    0.3724999724    0.9184801274          -0.025
C502       C    0.0289405600    0.3976665576    0.9437308156          -0.025
C503       C    0.0181574894    0.4296041684    0.9334222027          -0.025
C504       C    0.0142133539    0.4363751940    0.8978629015          -0.025
H505       H    0.0181326044    0.4162209266    0.8462890943          -0.025
H506       H    0.0437612105    0.3488596522    0.9261116515          -0.025
H507       H    0.0318602447    0.3926542399    0.9700539347          -0.025
H508       H    0.0062316386    0.4600155143    0.8902313775          -0.025
C489       C    0.3675116827    1.0856690052    0.5403883799          -0.025
C490       C    0.3649742868    1.0456687837    0.5498558602          -0.025
C491       C    0.3555605644    1.0308829044    0.5845049304          -0.025
C492       C    0.3486842380    1.0560972466    0.6096865203          -0.025
C493       C    0.3512216339    1.0960974680    0.6002190400          -0.025
C494       C    0.3606353562    1.1108833473    0.5655699698          -0.025
H495       H    0.3744802823    1.0966143963    0.5147390682          -0.025
H496       H    0.3536820951    1.0012744148    0.5915138222          -0.025
H497       H    0.3417156383    1.0451518554    0.6353358319          -0.025
H498       H    0.3625138256    1.1404918370    0.5585610780          -0.025
C479       C    0.5288820404    1.0134695494    0.5283251451          -0.025
C480       C    0.5399595234    0.9953216140    0.4999909796          -0.025
C481       C    0.5108983051    0.9772715135    0.4716060422          -0.025
C482       C    0.4707596037    0.9773693485    0.4715552703          -0.025
C483       C    0.4596821206    0.9955172840    0.4998894358          -0.025
C484       C    0.4887433390    1.0135673844    0.5282743731          -0.025
H485       H    0.5503948903    1.0268313121    0.5493373715          -0.025
H486       H    0.5190968989    0.9638379050    0.4506322954          -0.025
H487       H    0.4492467537    0.9640075859    0.4505430439          -0.025
H488       H    0.4805447451    1.0270009930    0.5492481200          -0.025
C469       C    0.2819042841    0.9017275166    0.4574537981          -0.025
C470       C    0.3149455978    0.9454009962    0.4498436105          -0.025
C471       C    0.3158918921    0.9637153600    0.4171045248          -0.025
C472       C    0.2837968727    0.9383562443    0.3919756266          -0.025
C473       C    0.2507555590    0.8946827647    0.3995858142          -0.025
C474       C    0.2498092647    0.8763684009    0.4323248999          -0.025
H475       H    0.2812037805    0.8881701304    0.4816892252          -0.025
H476       H    0.3403489851    0.9960428940    0.4114704548          -0.025
H477       H    0.2844973763    0.9519136305    0.3677401995          -0.025
H478       H    0.2253521717    0.8440408670    0.4379589699          -0.025
C459       C    0.8333863668    0.2020545361    0.1664079927          -0.025
C460       C    0.8736387558    0.2021819313    0.1664096433          -0.025
C461       C    0.8735530349    0.1619507593    0.1664069525          -0.025
C462       C    0.8332149250    0.1215921922    0.1664026110          -0.025
C463       C    0.7929625360    0.1214647970    0.1664009604          -0.025
C464       C    0.7930482569    0.1616959690    0.1664036512          -0.025
H465       H    0.8334498226    0.2318360530    0.1664099847          -0.025
H466       H    0.9033477075    0.1620437836    0.1664081742          -0.025
H467       H    0.8331514693    0.0918106753    0.1664006191          -0.025
H468       H    0.7632535844    0.1616029447    0.1664024295          -0.025
C449       C    1.0456743084    0.3394975775    0.2309415499          -0.025
C450       C    1.0187227689    0.2972158018    0.2164970137          -0.025
C451       C    1.0236248438    0.2615448719    0.2272281108          -0.025
C452       C    1.0554784582    0.2681557176    0.2524037442          -0.025
C453       C    1.0824299978    0.3104374933    0.2668482804          -0.025
C454       C    1.0775279229    0.3461084233    0.2561171833          -0.025
H455       H    1.0420454998    0.3659033309    0.2229977508          -0.025
H456       H    1.0036755652    0.2302469229    0.2165366561          -0.025
H457       H    1.0591072669    0.2417499643    0.2603475433          -0.025
H458       H    1.0974772015    0.3774063723    0.2668086381          -0.025
C439       C    0.9581070937    0.3349562802    0.0814308550          -0.025
C440       C    0.9686626840    0.3474215790    0.1164955301          -0.025
C441       C    0.9858524097    0.3918244693    0.1264562500          -0.025
C442       C    0.9924865451    0.4237620607    0.1013522947          -0.025
C443       C    0.9819309548    0.4112967619    0.0662876197          -0.025
C444       C    0.9647412291    0.3668938717    0.0563268998          -0.025
H445       H    0.9453822318    0.3020866082    0.0740573351          -0.025
H446       H    0.9936661641    0.4010526444    0.1524113131          -0.025
H447       H    1.0052114070    0.4566317328    0.1087258146          -0.025
H448       H    0.9569274747    0.3576656965    0.0303718367          -0.025
C429       C    0.1863916691    0.8488946945    0.8651156147          -0.025
C430       C    0.2066604891    0.8689822683    0.8334105276          -0.025
C431       C    0.1865720915    0.8487303809    0.8017017838          -0.025
C432       C    0.1462148740    0.8083909196    0.8016981271          -0.025
C433       C    0.1259460540    0.7883033458    0.8334032142          -0.025
C434       C    0.1460344516    0.8085552332    0.8651119580          -0.025
H435       H    0.2012623011    0.8638863514    0.8885883212          -0.025
H436       H    0.2015743643    0.8635984907    0.7782327874          -0.025
H437       H    0.1313442420    0.7933992627    0.7782254207          -0.025
H438       H    0.1310321788    0.7936871233    0.8885809544          -0.025
C419       C    0.3874451745    1.0069152781    0.8898414491          -0.025
C420       C    0.3519018552    0.9640514003    0.8833711416          -0.025
C421       C    0.3483022612    0.9278617399    0.9020114098          -0.025
C422       C    0.3802459865    0.9345359571    0.9271219854          -0.025
C423       C    0.4157893057    0.9773998349    0.9335922929          -0.025
C424       C    0.4193888997    1.0135894953    0.9149520248          -0.025
H425       H    0.3901098090    1.0337050267    0.8760428091          -0.025
H426       H    0.3219931087    0.8961329046    0.8972227011          -0.025
H427       H    0.3775813520    0.9077462085    0.9409206255          -0.025
H428       H    0.4456980522    1.0453183306    0.9197407335          -0.025
C409       C    0.3157488916    1.0578770144    0.7936226120          -0.025
C410       C    0.3016803125    1.0141347729    0.7833721183          -0.025
C411       C    0.2942373888    1.0022852156    0.7479779419          -0.025
C412       C    0.3008630443    1.0341778999    0.7228342594          -0.025
C413       C    0.3149316234    1.0779201414    0.7330847531          -0.025
C414       C    0.3223745471    1.0897696987    0.7684789295          -0.025
H415       H    0.3212585884    1.0666487646    0.8198234958          -0.025
H416       H    0.2838236410    0.9699069889    0.7403894428          -0.025
H417       H    0.2953533475    1.0254061497    0.6966333756          -0.025
H418       H    0.3327882949    1.1221479254    0.7760674286          -0.025
C399       C    0.6909403636    0.5952983239    0.5599774376          -0.025
C400       C    0.6850286712    0.6306714716    0.5502175121          -0.025
C401       C    0.7110208602    0.6725713855    0.5655592415          -0.025
C402       C    0.7429247415    0.6790981515    0.5906608964          -0.025
C403       C    0.7488364339    0.6437250038    0.6004208219          -0.025
C404       C    0.7228442449    0.6018250900    0.5850790925          -0.025
H405       H    0.6716993925    0.5642815046    0.5486205730          -0.025
H406       H    0.7066458691    0.6987557897    0.5583354648          -0.025
H407       H    0.7621657126    0.7101149709    0.6020177611          -0.025
H408       H    0.7272192360    0.5756406857    0.5923028692          -0.025
C389       C    0.6035559564    0.6942663408    0.4458801019          -0.025
C390       C    0.6350753659    0.6809949437    0.4501802096          -0.025
C391       C    0.6733623088    0.6996422853    0.4293169077          -0.025
C392       C    0.6801298421    0.7315610242    0.4041534980          -0.025
C393       C    0.6486104327    0.7448324213    0.3998533903          -0.025
C394       C    0.6103234898    0.7261850797    0.4207166922          -0.025
H395       H    0.5752136740    0.6804624645    0.4613243644          -0.025
H396       H    0.6966940753    0.6898194344    0.4324991719          -0.025
H397       H    0.7084721245    0.7453649005    0.3887092355          -0.025
H398       H    0.5869917233    0.7360079306    0.4175344281          -0.025
C379       C    0.5198174239    0.5154921372    0.4684519057          -0.025
C380       C    0.5398527462    0.5357430438    0.5001752754          -0.025
C381       C    0.5195735115    0.5156119392    0.5318657117          -0.025
C382       C    0.4792589545    0.4752299282    0.5318327782          -0.025
C383       C    0.4592236323    0.4549790216    0.5001094085          -0.025
C384       C    0.4795028670    0.4751101262    0.4684189722          -0.025
H385       H    0.5348293250    0.5303943835    0.4449927516          -0.025
H386       H    0.5344029440    0.5306009512    0.5553482401          -0.025
H387       H    0.4642470535    0.4603276819    0.5552919324          -0.025
H388       H    0.4646734345    0.4601211142    0.4449364438          -0.025
C369       C    0.3655234306    0.0104890330    0.0838473770          -0.025
C370       C    0.3835714744    0.0272036746    0.1168665876          -0.025
C371       C    0.4268609348    0.0371285021    0.1246741959          -0.025
C372       C    0.4521023513    0.0303386879    0.0994625937          -0.025
C373       C    0.4340543075    0.0136240463    0.0664433831          -0.025
C374       C    0.3907648471    0.0036992188    0.0586357748          -0.025
H375       H    0.3334779859    0.0031420828    0.0780677189          -0.025
H376       H    0.4402214026    0.0495009345    0.1491151453          -0.025
H377       H    0.4841477960    0.0376856381    0.1052422518          -0.025
H378       H    0.3774043793   -0.0086732136    0.0341948254          -0.025
C359       C    0.3734653909    0.1622264334    0.1670339444          -0.025
C360       C    0.3332539221    0.1217443416    0.1667918925          -0.025
C361       C    0.2928813371    0.1213686884    0.1664418630          -0.025
C362       C    0.2927202210    0.1614751269    0.1663338854          -0.025
C363       C    0.3329316898    0.2019572188    0.1665759373          -0.025
C364       C    0.3733042747    0.2023328720    0.1669259668          -0.025
H365       H    0.4033515901    0.1625045144    0.1672930571          -0.025
H366       H    0.2631156732    0.0914039760    0.1662626859          -0.025
H367       H    0.2628340218    0.1611970459    0.1660747727          -0.025
H368       H    0.4030699387    0.2322975844    0.1671051438          -0.025
C349       C    0.3017821968   -0.0444498410    0.2352599849          -0.025
C350       C    0.2833212711   -0.0229742224    0.2168725582          -0.025
C351       C    0.2395118647   -0.0336240807    0.2235978151          -0.025
C352       C    0.2141633840   -0.0657495577    0.2487104987          -0.025
C353       C    0.2326243096   -0.0872251763    0.2670979253          -0.025
C354       C    0.2764337160   -0.0765753180    0.2603726684          -0.025
H355       H    0.3342125366   -0.0365661796    0.2302815480          -0.025
H356       H    0.2258457667   -0.0177282411    0.2099877201          -0.025
H357       H    0.1817330442   -0.0736332190    0.2536889356          -0.025
H358       H    0.2900998140   -0.0924711575    0.2739827634          -0.025
C339       C    0.6263713595    0.7881367486    0.8331575280          -0.025
C340       C    0.6668217735    0.7886697096    0.8335466157          -0.025
C341       C    0.7069549979    0.8292283164    0.8336782566          -0.025
C342       C    0.7066378084    0.8692539622    0.8334208097          -0.025
C343       C    0.6661873944    0.8687210012    0.8330317219          -0.025
C344       C    0.6260541700    0.8281623944    0.8329000811          -0.025
H345       H    0.5966623492    0.7581128449    0.8330600796          -0.025
H346       H    0.7368975207    0.8296240958    0.8339662621          -0.025
H347       H    0.7363468187    0.8992778660    0.8335182581          -0.025
H348       H    0.5961116472    0.8277666150    0.8326120755          -0.025
C329       C    0.7572166023    0.6966629632    0.7931388238          -0.025
C330       C    0.7171084106    0.6939843235    0.7838200013          -0.025
C331       C    0.7020645486    0.6843250127    0.7492454157          -0.025
C332       C    0.7271288784    0.6773443417    0.7239896525          -0.025
C333       C    0.7672370701    0.6800229815    0.7333084749          -0.025
C334       C    0.7822809321    0.6896822923    0.7678830606          -0.025
H335       H    0.7683529677    0.7038133621    0.8187329976          -0.025
H336       H    0.6723761316    0.6823419874    0.7423465622          -0.025
H337       H    0.7159925130    0.6701939428    0.6983954787          -0.025
H338       H    0.8119693491    0.6916653176    0.7747819141          -0.025
C319       C    0.5852214762    0.6481437412    0.9035981890          -0.025
C320       C    0.6168907154    0.6440345471    0.8838477907          -0.025
C321       C    0.6230834489    0.6077774898    0.8891571361          -0.025
C322       C    0.5976069432    0.5756296268    0.9142168798          -0.025
C323       C    0.5659377040    0.5797388210    0.9339672781          -0.025
C324       C    0.5597449705    0.6159958782    0.9286579327          -0.025
H325       H    0.5806372448    0.6749833810    0.8996678944          -0.025
H326       H    0.6465251032    0.6047347315    0.8745381295          -0.025
H327       H    0.6021911746    0.5487899870    0.9181471745          -0.025
H328       H    0.5363033161    0.6190386365    0.9432769394          -0.025
C309       C   -0.0912961959    0.2740487437    0.5408830903          -0.025
C310       C   -0.0500581128    0.3105548566    0.5499394897          -0.025
C311       C   -0.0341201572    0.3149570151    0.5841368081          -0.025
C312       C   -0.0594202847    0.2828530607    0.6092777271          -0.025
C313       C   -0.1006583678    0.2463469479    0.6002213277          -0.025
C314       C   -0.1165963234    0.2419447894    0.5660240093          -0.025
H315       H   -0.1030944227    0.2707900030    0.5155681923          -0.025
H316       H   -0.0035953703    0.3419788494    0.5908414049          -0.025
H317       H   -0.0476220579    0.2861118014    0.6345926251          -0.025
H318       H   -0.1471211103    0.2149229551    0.5593194125          -0.025
C299       C    0.0572721755    0.3246299154    0.4532798219          -0.025
C300       C    0.0500520325    0.3605161030    0.4500156400          -0.025
C301       C    0.0680522588    0.3895096176    0.4215861672          -0.025
C302       C    0.0932726281    0.3826169447    0.3964208764          -0.025
C303       C    0.1004927711    0.3467307571    0.3996850583          -0.025
C304       C    0.0824925447    0.3177372424    0.4281145311          -0.025
H305       H    0.0439473326    0.3031671837    0.4743250160          -0.025
H306       H    0.0627085043    0.4160733637    0.4191691317          -0.025
H307       H    0.1065974710    0.4040796763    0.3753756823          -0.025
H308       H    0.0878362992    0.2911734964    0.4305315667          -0.025
C289       C   -0.0002707441    0.4753908130    0.5316215118          -0.025
C290       C   -0.0001693230    0.4551734067    0.4999365352          -0.025
C291       C   -0.0002050096    0.4750750190    0.4682077862          -0.025
C292       C   -0.0003421174    0.5151940377    0.4681640139          -0.025
C293       C   -0.0004435385    0.5354114439    0.4998489905          -0.025
C294       C   -0.0004078519    0.5155098316    0.5315777394          -0.025
H295       H   -0.0002443268    0.4606584506    0.5551090272          -0.025
H296       H   -0.0001299392    0.4601107966    0.4447536750          -0.025
H297       H   -0.0003685348    0.5299264001    0.4446764984          -0.025
H298       H   -0.0004829223    0.5304740540    0.5550318506          -0.025
loop_
_geom_bond_atom_site_label_1
_geom_bond_atom_site_label_2
_geom_bond_distance
_geom_bond_site_symmetry_2
_ccdc_geom_bond_type
C471       H476 1.140       .   S
C511       H516 1.140       .   S
C512       H517 1.140       .   S
C509       H515 1.140       .   S
C514       H518 1.140       .   S
C694       H698 1.140       .   S
C689       H695 1.140       .   S
C692       H697 1.140       .   S
C691       H696 1.140       .   S
C562       H567 1.140       .   S
C562       C563 1.540       .   A
C561       C562 1.540       .   A
C563       C243 1.534   1_565   S
C563       C564 1.540       .   A
C560       C561 1.540       .   A
C560        C84 1.534       .   S
C559       C560 1.540       .   A
C561       H566 1.140       .   S
O238      Cu242 1.951       .   S
O238       C245 1.251       .   A
O239      Cu242 1.951       .   S
O239       C244 1.250       .   A
O236       C246 1.250       .   A
O236      Cu241 1.951       .   S
O237      Cu242 1.951       .   S
O237       C246 1.250       .   A
O234      Cu241 1.951       .   S
O234       C244 1.250       .   A
O235       C245 1.250       .   A
O235      Cu241 1.951       .   S
O233       C243 1.250       .   A
O233      Cu241 1.951       .   S
C245       C713 1.538   1_545   S
C244       C520 1.533   1_655   S
C344       H348 1.140       .   S
C461       H466 1.140       .   S
C462       H467 1.140       .   S
C459       H465 1.140       .   S
C373       C260 1.534   1_544   S
C373       C374 1.540       .   A
C372       C373 1.540       .   A
C464       H468 1.140       .   S
C342       H347 1.140       .   S
C341       H346 1.140       .   S
C339       H345 1.140       .   S
C301       H306 1.140       .   S
C301       C302 1.540       .   A
C300       C301 1.540       .   A
C371       H376 1.140       .   S
C371       C372 1.540       .   A
C370       C371 1.540       .   A
C370        C23 1.534       .   S
C369       C370 1.540       .   A
C479       C480 1.540       .   A
C479       C484 1.540       .   A
C479       H485 1.140       .   S
O278      Cu283 1.951       .   S
Cu283     Cu284 2.630       .   S
O276      Cu283 1.951       .   S
O277      Cu283 1.951       .   S
O275      Cu283 1.951       .   S
O282      Cu284 1.951       .   S
O281      Cu284 1.951       .   S
O279      Cu284 1.951       .   S
O280      Cu284 1.951       .   S
O163       C173 1.250       .   A
O163      Cu171 1.951       .   S
O166      Cu171 1.951       .   S
O166       C176 1.250       .   A
O167       C176 1.250       .   A
O167      Cu172 1.951       .   S
O164      Cu171 1.951       .   S
O164       C174 1.250       .   A
O165       C175 1.250       .   A
O165      Cu171 1.951       .   S
O168       C175 1.251       .   A
O168      Cu172 1.951       .   S
O169       C174 1.250       .   A
O169      Cu172 1.951       .   S
C669       C670 1.540       .   A
C669       H675 1.140       .   S
C669       C674 1.540       .   A
C483        C57 1.536       .   S
C482       C483 1.540       .   A
C483       C484 1.540       .   A
C232       C610 1.535   1_455   S
O223       C232 1.250       .   A
O222       C232 1.250       .   A
C481       C482 1.540       .   A
C482       H487 1.140       .   S
C230       C683 1.535   1_455   S
O220       C230 1.250       .   A
O225       C230 1.250       .   A
C484       H488 1.140       .   S
O266      Cu270 1.951       .   S
O266       C273 1.251       .   A
C15         H18 1.140       .   S
C46         C47 1.540       .   A
C46        C440 1.542       .   S
C46         C51 1.540       .   A
C47         C48 1.540       .   A
C47         H52 1.140       .   S
C40         H44 1.140       .   S
C39         C40 1.540       .   A
C40         C41 1.540       .   A
C41        C430 1.537       .   S
C41         C42 1.540       .   A
C42         H45 1.140       .   S
C37         C42 1.540       .   A
C641       H646 1.140       .   S
C642       H647 1.140       .   S
C639       H645 1.140       .   S
C48        C450 1.542       .   S
C48         C49 1.540       .   A
C49         H53 1.140       .   S
C49         C50 1.540       .   A
C11         H16 1.140       .   S
C13         H17 1.140       .   S
C592       C593 1.540       .   A
C593       C202 1.534       .   S
C593       C594 1.540       .   A
C592       H597 1.140       .   S
C591       C592 1.540       .   A
C591       H596 1.140       .   S
C590       C591 1.540       .   A
C590        C93 1.534       .   S
C589       C590 1.540       .   A
C589       C594 1.540       .   A
C594       H598 1.140       .   S
O210      Cu214 1.951       .   S
O211      Cu214 1.951       .   S
O209      Cu214 1.951       .   S
O212      Cu214 1.951       .   S
Cu213     Cu214 2.630       .   S
C599       C600 1.540       .   A
C599       H605 1.140       .   S
C599       C604 1.540       .   A
O208      Cu213 1.951       .   S
O207      Cu213 1.951       .   S
O206      Cu213 1.951       .   S
O205      Cu213 1.951       .   S
C289       H295 1.140       .   S
C292       H297 1.140       .   S
C291       H296 1.140       .   S
C294       H298 1.140       .   S
C112       H116 1.140       .   S
C114       H117 1.140       .   S
C110       H115 1.140       .   S
C699       C700 1.540       .   A
C699       H705 1.140       .   S
C699       C704 1.540       .   A
C349       C354 1.540       .   A
C349       C350 1.540       .   A
C349       H355 1.140       .   S
C609       C614 1.540       .   A
C613       C614 1.540       .   A
C614       H618 1.140       .   S
C690       C691 1.540       .   A
C689       C690 1.540       .   A
C690       C136 1.535       .   S
C691       C692 1.540       .   A
C692       C693 1.540       .   A
C693       C286 1.535       .   S
C693       C694 1.540       .   A
C689       C694 1.540       .   A
C343       C344 1.540       .   A
C339       C344 1.540       .   A
C293       C294 1.540       .   A
C293       C140 1.536   1_455   S
C292       C293 1.540       .   A
C311       C312 1.540       .   A
C312       C313 1.540       .   A
C312       H317 1.140       .   S
C492       H497 1.140       .   S
C491       H496 1.140       .   S
C489       H495 1.140       .   S
C494       H498 1.140       .   S
C313       C314 1.540       .   A
C314       H318 1.140       .   S
C309       C314 1.540       .   A
C519       C524 1.540       .   A
C524       H528 1.140       .   S
C523       C524 1.540       .   A
C522       H527 1.140       .   S
C522       C523 1.540       .   A
C521       C522 1.540       .   A
C523        C64 1.533       .   S
C519       C520 1.540       .   A
C520       C521 1.540       .   A
O278       C288 1.250       .   A
O279       C288 1.250       .   A
C288       C650 1.543   1_655   S
C287       C403 1.544       .   S
O280       C287 1.251       .   A
O277       C287 1.250       .   A
O281       C286 1.250       .   A
O276       C286 1.250       .   A
C285       C333 1.534       .   S
O282       C285 1.250       .   A
O275       C285 1.250       .   A
C529       C530 1.540       .   A
C529       C534 1.540       .   A
C529       H535 1.140       .   S
C449       C450 1.540       .   A
C449       H455 1.140       .   S
C449       C454 1.540       .   A
C119       C120 1.540       .   A
C119       H124 1.140       .   S
C118       C119 1.540       .   A
C118       C123 1.540       .   A
C118       C653 1.543       .   S
C439       C444 1.540       .   A
C444       H448 1.140       .   S
C443       C444 1.540       .   A
C113       C114 1.540       .   A
C109       C114 1.540       .   A
C112       C113 1.540       .   A
C113       C383 1.538       .   S
C111       C112 1.540       .   A
C111       C620 1.543       .   S
C110       C111 1.540       .   A
C109       C110 1.540       .   A
C559       C564 1.540       .   A
C564       H568 1.140       .   S
C421       H426 1.140       .   S
O240       C243 1.250       .   A
C419       H425 1.140       .   S
C384       H388 1.140       .   S
C382       H387 1.140       .   S
C381       H386 1.140       .   S
C379       H385 1.140       .   S
C424       H428 1.140       .   S
C569       C574 1.540       .   A
C569       C570 1.540       .   A
C569       H575 1.140       .   S
C544       H548 1.140       .   S
C539       H545 1.140       .   S
C542       H547 1.140       .   S
C541       H546 1.140       .   S
C246       C313 1.530   1_655   S
O265      Cu270 1.951       .   S
O265       C274 1.250       .   A
O264      Cu269 1.951       .   S
O264       C274 1.250       .   A
O267      Cu270 1.951       .   S
O267       C272 1.250       .   A
O221       C231 1.250       .   A
O224       C231 1.251       .   A
C473       C231 1.534       .   S
O261      Cu269 1.951       .   S
O261       C271 1.250       .   A
O263      Cu269 1.951       .   S
O263       C273 1.250       .   A
O262      Cu269 1.951       .   S
O262       C272 1.250       .   A
C364       H368 1.140       .   S
C359       C364 1.540       .   A
C363       C364 1.540       .   A
O268      Cu270 1.951       .   S
O268       C271 1.250       .   A
C584       H588 1.140       .   S
C422       H427 1.140       .   S
C290       C291 1.540       .   A
C291       C292 1.540       .   A
C629       C634 1.540       .   A
C629       H635 1.140       .   S
C629       C630 1.540       .   A
C632       H637 1.140       .   S
C631       H636 1.140       .   S
C620       C621 1.540       .   A
C621       H626 1.140       .   S
C621       C622 1.540       .   A
C619       C620 1.540       .   A
C623       C204 1.543       .   S
C622       C623 1.540       .   A
C623       C624 1.540       .   A
C622       H627 1.140       .   S
Cu171     Cu172 2.630       .   S
O170      Cu172 1.951       .   S
C331       H336 1.140       .   S
C661       H666 1.140       .   S
C329       H335 1.140       .   S
C334       H338 1.140       .   S
C450       C451 1.540       .   A
C619       C624 1.540       .   A
C624       H628 1.140       .   S
O193       C203 1.250       .   A
O193      Cu199 1.951       .   S
O192       C202 1.250       .   A
O192      Cu199 1.951       .   S
O191       C201 1.250       .   A
O191      Cu199 1.951       .   S
O197      Cu200 1.951       .   S
O197       C202 1.250       .   A
O196      Cu200 1.951       .   S
O196       C203 1.251       .   A
O195       C204 1.250       .   A
O195      Cu200 1.951       .   S
O194       C204 1.250       .   A
O194      Cu199 1.951       .   S
O198      Cu200 1.951       .   S
O198       C201 1.250       .   A
C724       H728 1.140       .   S
O247      Cu255 1.951       .   S
O250      Cu255 1.951       .   S
Cu255     Cu256 2.630       .   S
O249      Cu255 1.951       .   S
O248      Cu255 1.951       .   S
O254      Cu256 1.951       .   S
O251      Cu256 1.951       .   S
O252      Cu256 1.951       .   S
O253      Cu256 1.951       .   S
C719       H725 1.140       .   S
C722       H727 1.140       .   S
C721       H726 1.140       .   S
C714       H718 1.140       .   S
C709       C714 1.540       .   A
C713       C714 1.540       .   A
C710       C711 1.540       .   A
C711       H716 1.140       .   S
C711       C712 1.540       .   A
C709       C710 1.540       .   A
C710       C145 1.538       .   S
C712       C713 1.540       .   A
C712       H717 1.140       .   S
C489       C494 1.540       .   A
C493       C494 1.540       .   A
C719       C724 1.540       .   A
C719       C720 1.540       .   A
C150       H153 1.140       .   S
C489       C490 1.540       .   A
C490        C55 1.534       .   S
C490       C491 1.540       .   A
C146       H151 1.140       .   S
C509       C510 1.540       .   A
C510       C511 1.540       .   A
C510        C68 1.536       .   S
C659       C664 1.540       .   A
C659       C660 1.540       .   A
C659       H665 1.140       .   S
C309       C310 1.540       .   A
C309       H315 1.140       .   S
C654       H658 1.140       .   S
C649       C654 1.540       .   A
C653       C654 1.540       .   A
C304       H308 1.140       .   S
C299       C304 1.540       .   A
C303       C304 1.540       .   A
C650       C651 1.540       .   A
C649       C650 1.540       .   A
C651       C652 1.540       .   A
C651       H656 1.140       .   S
C652       H657 1.140       .   S
C652       C653 1.540       .   A
C513       C514 1.540       .   A
C509       C514 1.540       .   A
C609       H615 1.140       .   S
C612       H617 1.140       .   S
C611       H616 1.140       .   S
C589       H595 1.140       .   S
O221      Cu227 1.951       .   S
O219      Cu227 1.951       .   S
O222      Cu227 1.951       .   S
Cu227     Cu228 2.630       .   S
O220      Cu227 1.951       .   S
C38         C39 1.540       .   A
C39        C410 1.543       .   S
C38         H43 1.140       .   S
C37         C38 1.540       .   A
C37        C420 1.543       .   S
C31         H35 1.140       .   S
C30         C31 1.540       .   A
C31         C32 1.540       .   A
C29         C30 1.540       .   A
C380        C30 1.538       .   S
C28         C33 1.540       .   A
C33         H36 1.140       .   S
C32         C33 1.540       .   A
C32        C400 1.544       .   S
C400       C401 1.540       .   A
C401       C402 1.540       .   A
C401       H406 1.140       .   S
C399       C400 1.540       .   A
C402       C403 1.540       .   A
C403       C404 1.540       .   A
C149       C150 1.540       .   A
C145       C150 1.540       .   A
C157       H161 1.140       .   S
C157       C158 1.540       .   A
C156       C157 1.540       .   A
C155       C156 1.540       .   A
C363       C156 1.537       .   S
C155       H160 1.140       .   S
C154       C155 1.540       .   A
C154       C159 1.540       .   A
C720       C154 1.535       .   S
C409       C414 1.540       .   A
C409       H415 1.140       .   S
C409       C410 1.540       .   A
C159       H162 1.140       .   S
C158       C159 1.540       .   A
C158       C730 1.534       .   S
C51         H54 1.140       .   S
C20         H25 1.140       .   S
C392       C393 1.540       .   A
C393       C394 1.540       .   A
C393       C190 1.543       .   S
C391       C392 1.540       .   A
C392       H397 1.140       .   S
C394       H398 1.140       .   S
C389       C394 1.540       .   A
C399       C404 1.540       .   A
C399       H405 1.140       .   S
C24         H27 1.140       .   S
O254       C257 1.250       .   A
C649       H655 1.140       .   S
O250       C260 1.250       .   A
O251       C260 1.250       .   A
O252       C259 1.251       .   A
O253       C258 1.250       .   A
C499       H505 1.140       .   S
C502       H507 1.140       .   S
C501       H506 1.140       .   S
C504       H508 1.140       .   S
C274       C733 1.534       .   S
C272       C633 1.543       .   S
C303       C273 1.533       .   S
C271       C453 1.542   1_455   S
C474       H478 1.140       .   S
C469       C474 1.540       .   A
C473       C474 1.540       .   A
C579       C580 1.540       .   A
C579       H585 1.140       .   S
C579       C584 1.540       .   A
C499       C500 1.540       .   A
C499       C504 1.540       .   A
C472       H477 1.140       .   S
C471       C472 1.540       .   A
C472       C473 1.540       .   A
O223      Cu228 1.951       .   S
O225      Cu228 1.951       .   S
O224      Cu228 1.951       .   S
C573       C574 1.540       .   A
C573       C187 1.535       .   S
C572       C573 1.540       .   A
O226       C229 1.250       .   A
O226      Cu228 1.951       .   S
C512       C513 1.540       .   A
C513        C95 1.536       .   S
C372       H377 1.140       .   S
C369       H375 1.140       .   S
C492       C493 1.540       .   A
C491       C492 1.540       .   A
C374       H378 1.140       .   S
C571       H576 1.140       .   S
C572       H577 1.140       .   S
C469       H475 1.140       .   S
C511       C512 1.540       .   A
C574       H578 1.140       .   S
C493       C201 1.534   1_565   S
C350        C19 1.533       .   S
C350       C351 1.540       .   A
C610       C611 1.540       .   A
C609       C610 1.540       .   A
C611       C612 1.540       .   A
C612       C613 1.540       .   A
C613       C100 1.535       .   S
O179      Cu185 1.951       .   S
O179       C189 1.250       .   A
O178       C188 1.250       .   A
O178      Cu185 1.951       .   S
C619       H625 1.140       .   S
O177       C187 1.250       .   A
O177      Cu185 1.951       .   S
O170       C173 1.250       .   A
C552       H557 1.140       .   S
C73         C78 1.540       .   A
C78         H81 1.140       .   S
C77         C78 1.540       .   A
C709       H715 1.140       .   S
C359       H365 1.140       .   S
C359       C360 1.540       .   A
C73         C74 1.540       .   A
C543        C73 1.533       .   S
C22         H26 1.140       .   S
C530        C75 1.537       .   S
C74         C75 1.540       .   A
C75         C76 1.540       .   A
C74         H79 1.140       .   S
C550        C77 1.533       .   S
C76         C77 1.540       .   A
C76         H80 1.140       .   S
Cu269     Cu270 2.630       .   S
C103       H107 1.140       .   S
C101       H106 1.140       .   S
C105       H108 1.140       .   S
C354       H358 1.140       .   S
C353       C354 1.540       .   A
C351       H356 1.140       .   S
C351       C352 1.540       .   A
C729       C734 1.540       .   A
C729       H735 1.140       .   S
C729       C730 1.540       .   A
C229       C353 1.533   1_565   S
C352       C353 1.540       .   A
C352       H357 1.140       .   S
C723       C724 1.540       .   A
C148       H152 1.140       .   S
C720       C721 1.540       .   A
C721       C722 1.540       .   A
C722       C723 1.540       .   A
C216       C723 1.535       .   S
C682       C683 1.540       .   A
C683       C684 1.540       .   A
C681       C682 1.540       .   A
C682       H687 1.140       .   S
C680       C681 1.540       .   A
C681       H686 1.140       .   S
C679       C680 1.540       .   A
C680       C138 1.535       .   S
C684       H688 1.140       .   S
C679       C684 1.540       .   A
C530       C531 1.540       .   A
C531       C532 1.540       .   A
C531       H536 1.140       .   S
C660       C661 1.540       .   A
C661       C662 1.540       .   A
C532       C533 1.540       .   A
C532       H537 1.140       .   S
C534       H538 1.140       .   S
C533       C534 1.540       .   A
C664       H668 1.140       .   S
C663       C664 1.540       .   A
C539       C544 1.540       .   A
C539       C540 1.540       .   A
C679       H685 1.140       .   S
C439       C440 1.540       .   A
C439       H445 1.140       .   S
C128       C129 1.540       .   A
C127       C128 1.540       .   A
C128       H133 1.140       .   S
C463       C129 1.538       .   S
C129       C130 1.540       .   A
C122       C123 1.540       .   A
C121       C122 1.540       .   A
C640       C122 1.543       .   S
C123       H126 1.140       .   S
C120       C433 1.537       .   S
C120       C121 1.540       .   A
C121       H125 1.140       .   S
C434       H438 1.140       .   S
C429       C434 1.540       .   A
C433       C434 1.540       .   A
C670       C127 1.544       .   S
C127       C132 1.540       .   A
C660       C131 1.544       .   S
C663       C189 1.544   1_545   S
C662       C663 1.540       .   A
C302       H307 1.140       .   S
C302       C303 1.540       .   A
C662       H667 1.140       .   S
C459       C464 1.540       .   A
C459       C460 1.540       .   A
C429       H435 1.140       .   S
C300         C1 1.533       .   S
C299       C300 1.540       .   A
C432       H437 1.140       .   S
C431       H436 1.140       .   S
C92         C93 1.540       .   A
C93         C94 1.540       .   A
C91         C92 1.540       .   A
C92         H97 1.140       .   S
C580        C91 1.536       .   S
C91         C96 1.540       .   A
C96         H99 1.140       .   S
C95         C96 1.540       .   A
C94         C95 1.540       .   A
C94         H98 1.140       .   S
O210       C217 1.251       .   A
O211       C216 1.250       .   A
O212       C215 1.250       .   A
O219       C229 1.250       .   A
C540       C541 1.540       .   A
C541       C542 1.540       .   A
C542       C543 1.540       .   A
C543       C544 1.540       .   A
C549       H555 1.140       .   S
C549       C554 1.540       .   A
C549       C550 1.540       .   A
C552       C553 1.540       .   A
C551       C552 1.540       .   A
C551       H556 1.140       .   S
C550       C551 1.540       .   A
C553       C554 1.540       .   A
C188       C553 1.533       .   S
C441       H446 1.140       .   S
C442       H447 1.140       .   S
C324       H328 1.140       .   S
C319       H325 1.140       .   S
C322       H327 1.140       .   S
C321       H326 1.140       .   S
C480       C481 1.540       .   A
C481       H486 1.140       .   S
C480        C86 1.536       .   S
C139       H143 1.140       .   S
C137       H142 1.140       .   S
C141       H144 1.140       .   S
C319       C320 1.540       .   A
C319       C324 1.540       .   A
C310       C311 1.540       .   A
C311       H316 1.140       .   S
C310         C3 1.530       .   S
C643       C644 1.540       .   A
C644       H648 1.140       .   S
C639       C644 1.540       .   A
C642       C643 1.540       .   A
C176       C643 1.543   1_655   S
C641       C642 1.540       .   A
C640       C641 1.540       .   A
C639       C640 1.540       .   A
C22         C23 1.540       .   A
C21         C22 1.540       .   A
C23         C24 1.540       .   A
C19         C20 1.540       .   A
C20         C21 1.540       .   A
C360        C21 1.537       .   S
C19         C24 1.540       .   A
C28        C390 1.543       .   S
C28         C29 1.540       .   A
C29         H34 1.140       .   S
C533       C102 1.537       .   S
C582       H587 1.140       .   S
C581       H586 1.140       .   S
C130       H134 1.140       .   S
C132       H135 1.140       .   S
C369       C374 1.540       .   A
C56         H61 1.140       .   S
C60         H63 1.140       .   S
C58         H62 1.140       .   S
C360       C361 1.540       .   A
C361       C362 1.540       .   A
C361       H366 1.140       .   S
C362       H367 1.140       .   S
C362       C363 1.540       .   A
O184       C187 1.250       .   A
O249       C259 1.250       .   A
O248       C258 1.250       .   A
O247       C257 1.250       .   A
O183       C188 1.250       .   A
O182       C189 1.251       .   A
O240      Cu242 1.951       .   S
C85         H89 1.140       .   S
C83         H88 1.140       .   S
C463       C464 1.540       .   A
C462       C463 1.540       .   A
C461       C462 1.540       .   A
C460       C461 1.540       .   A
C460        C50 1.538       .   S
C500        C66 1.534       .   S
C500       C501 1.540       .   A
C501       C502 1.540       .   A
C502       C503 1.540       .   A
C503       C504 1.540       .   A
C173       C503 1.534   1_655   S
C469       C470 1.540       .   A
C451       H456 1.140       .   S
C430       C431 1.540       .   A
C429       C430 1.540       .   A
C402       H407 1.140       .   S
C431       C432 1.540       .   A
C432       C433 1.540       .   A
C404       H408 1.140       .   S
C559       H565 1.140       .   S
C215       C323 1.535   1_554   S
O205       C215 1.250       .   A
O206       C216 1.250       .   A
C217       C540 1.533       .   S
O207       C217 1.250       .   A
C341       C342 1.540       .   A
C340       C341 1.540       .   A
O209       C218 1.250       .   A
O208       C218 1.250       .   A
C218       C583 1.536   1_554   S
C602       C603 1.540       .   A
C174       C603 1.535   1_556   S
C603       C604 1.540       .   A
C601       C602 1.540       .   A
C602       H607 1.140       .   S
C600       C601 1.540       .   A
C601       H606 1.140       .   S
C600       C104 1.535       .   S
C604       H608 1.140       .   S
Cu199     Cu200 2.630       .   S
C390       C391 1.540       .   A
C391       H396 1.140       .   S
Cu241     Cu242 2.630       .   S
C389       C390 1.540       .   A
C582       C583 1.540       .   A
C583       C584 1.540       .   A
C2           C3 1.540       .   A
C3           C4 1.540       .   A
C1           C2 1.540       .   A
C2           H7 1.140       .   S
C1           C6 1.540       .   A
C6           H9 1.140       .   S
C5           C6 1.540       .   A
C290         C5 1.536       .   S
C4           C5 1.540       .   A
C4           H8 1.140       .   S
C702       H707 1.140       .   S
C701       H706 1.140       .   S
C64         C69 1.540       .   A
C69         H72 1.140       .   S
C68         C69 1.540       .   A
C66         C67 1.540       .   A
C65         C66 1.540       .   A
C67         C68 1.540       .   A
C67         H71 1.140       .   S
C64         C65 1.540       .   A
C65         H70 1.140       .   S
C55         C60 1.540       .   A
C59         C60 1.540       .   A
C320       C321 1.540       .   A
C10        C320 1.535       .   S
C321       C322 1.540       .   A
C322       C323 1.540       .   A
C323       C324 1.540       .   A
C329       C330 1.540       .   A
C329       C334 1.540       .   A
C733       C734 1.540       .   A
C734       H738 1.140       .   S
C732       C733 1.540       .   A
C732       H737 1.140       .   S
C731       C732 1.540       .   A
C731       H736 1.140       .   S
C730       C731 1.540       .   A
C289       C294 1.540       .   A
C289       C290 1.540       .   A
C634       H638 1.140       .   S
C12         C13 1.540       .   A
C13         C14 1.540       .   A
C11         C12 1.540       .   A
C12        C330 1.534       .   S
C10         C11 1.540       .   A
C10         C15 1.540       .   A
C14         C15 1.540       .   A
C340        C14 1.536       .   S
C136       C137 1.540       .   A
C137       C138 1.540       .   A
C136       C141 1.540       .   A
C130       C131 1.540       .   A
C131       C132 1.540       .   A
C332       H337 1.140       .   S
C139       C140 1.540       .   A
C138       C139 1.540       .   A
C423       C258 1.543       .   S
C422       C423 1.540       .   A
C423       C424 1.540       .   A
C421       C422 1.540       .   A
C420       C421 1.540       .   A
C419       C420 1.540       .   A
C419       C424 1.540       .   A
C342       C343 1.540       .   A
C330       C331 1.540       .   A
C343       C147 1.536       .   S
C339       C340 1.540       .   A
C82         C83 1.540       .   A
C570        C82 1.535       .   S
C82         C87 1.540       .   A
C83         C84 1.540       .   A
C84         C85 1.540       .   A
C85         C86 1.540       .   A
C86         C87 1.540       .   A
C87         H90 1.140       .   S
C521       H526 1.140       .   S
C519       H525 1.140       .   S
C703       C259 1.536       .   S
C554       H558 1.140       .   S
C673       C257 1.544   1_544   S
C452       H457 1.140       .   S
C454       H458 1.140       .   S
C672       C673 1.540       .   A
C671       C672 1.540       .   A
C672       H677 1.140       .   S
C673       C674 1.540       .   A
C670       C671 1.540       .   A
C671       H676 1.140       .   S
C674       H678 1.140       .   S
C56         C57 1.540       .   A
C57         C58 1.540       .   A
C55         C56 1.540       .   A
C50         C51 1.540       .   A
C470        C59 1.534       .   S
C58         C59 1.540       .   A
C580       C581 1.540       .   A
C581       C582 1.540       .   A
C175       C443 1.542   1_556   S
C379       C384 1.540       .   A
C379       C380 1.540       .   A
C470       C471 1.540       .   A
O180       C190 1.250       .   A
O181       C190 1.250       .   A
C299       H305 1.140       .   S
C570       C571 1.540       .   A
C571       C572 1.540       .   A
C452       C453 1.540       .   A
C451       C452 1.540       .   A
C453       C454 1.540       .   A
C109       C630 1.543       .   S
C104       C105 1.540       .   A
C103       C104 1.540       .   A
C100       C105 1.540       .   A
C100       C101 1.540       .   A
C101       C102 1.540       .   A
C102       C103 1.540       .   A
C389       H395 1.140       .   S
C203       C413 1.543   1_545   S
C413       C414 1.540       .   A
C412       C413 1.540       .   A
C414       H418 1.140       .   S
C412       H417 1.140       .   S
C411       H416 1.140       .   S
O180      Cu185 1.951       .   S
Cu185     Cu186 2.630       .   S
O181      Cu186 1.951       .   S
O182      Cu186 1.951       .   S
O183      Cu186 1.951       .   S
O184      Cu186 1.951       .   S
C633       C634 1.540       .   A
C632       C633 1.540       .   A
C631       C632 1.540       .   A
C630       C631 1.540       .   A
C410       C411 1.540       .   A
C440       C441 1.540       .   A
C441       C442 1.540       .   A
C411       C412 1.540       .   A
C442       C443 1.540       .   A
C332       C333 1.540       .   A
C333       C334 1.540       .   A
C331       C332 1.540       .   A
C702       C703 1.540       .   A
C701       C702 1.540       .   A
C703       C704 1.540       .   A
C700       C701 1.540       .   A
C700       C149 1.536       .   S
C383       C384 1.540       .   A
C704       H708 1.140       .   S
C382       C383 1.540       .   A
C381       C382 1.540       .   A
C140       C141 1.540       .   A
C145       C146 1.540       .   A
C146       C147 1.540       .   A
C147       C148 1.540       .   A
C148       C149 1.540       .   A
C380       C381 1.540       .   A
