data_fog_v1-3c_triazine_Ch_v2-4c_Cu_1_Ch_1B_4H_Ch
_audit_creation_date              2019-11-05
_audit_creation_method            'tobacco_3.0'
_symmetry_space_group_name_H-M    'P1'
_symmetry_Int_Tables_number       1
_symmetry_cell_setting            triclinic
loop_
_symmetry_equiv_pos_as_xyz
  x,y,z
_cell_length_a                    38.32001717012881
_cell_length_b                    38.319868488295086
_cell_length_c                    42.063288580434055
_cell_angle_alpha                 90.21769414702382
_cell_angle_beta                  89.78220364331088
_cell_angle_gamma                 120.26204823081036
loop_
_atom_site_label
_atom_site_type_symbol
_atom_site_fract_x
_atom_site_fract_y
_atom_site_fract_z
_atom_site_charge
C1         C    0.0249517386    0.3673759596    0.4750611177 -0.027027027027
N2         N    0.0000326094    0.3348302909    0.5000198183 -0.027027027027
C3         C   -0.0249191292    0.3424543314    0.5249587006 -0.027027027027
N4         N   -0.0249517386    0.3826240404    0.5249388823 -0.027027027027
C5         C   -0.0000326094    0.4151697091    0.4999801817 -0.027027027027
N6         N    0.0249191292    0.4075456686    0.4750412994 -0.027027027027
C7         C    0.6422838854    0.6760772518    0.8588700195 -0.027027027027
N8         N    0.6672430005    0.6684267237    0.8339584387 -0.027027027027
C9         C    0.6921496950    0.7009355799    0.8089693438 -0.027027027027
N10        N    0.6920972743    0.7410949642    0.8088918295 -0.027027027027
C11        C    0.6671381592    0.7487454924    0.8338034103 -0.027027027027
N12        N    0.6422314647    0.7162366362    0.8587925052 -0.027027027027
C13        C    0.3085578390    0.0090094215    0.1918707465 -0.027027027027
N14        N    0.3085041088    0.0491684889    0.1918550356 -0.027027027027
C15        C    0.3334146833    0.0817262487    0.1668996322 -0.027027027027
N16        N    0.3583789879    0.0741249411    0.1419599398 -0.027027027027
C17        C    0.3584327181    0.0339658737    0.1419756508 -0.027027027027
N18        N    0.3335221436    0.0014081139    0.1669310541 -0.027027027027
C19        C    0.6282936827    0.6490094681    0.4753962318 -0.027027027027
N20        N    0.5879273889    0.6086836507    0.4753835152 -0.027027027027
C21        C    0.5801231953    0.5760808733    0.5002081729 -0.027027027027
N22        N    0.6126852956    0.5838039132    0.5250455472 -0.027027027027
C23        C    0.6530515895    0.6241297305    0.5250582638 -0.027027027027
N24        N    0.6608557831    0.6567325080    0.5002336061 -0.027027027027
C25        C    0.3198977944    0.9573645768    0.8582131369 -0.027027027027
N26        N    0.3276428479    0.9899417705    0.8333835929 -0.027027027027
C27        C    0.2950405485    0.9821741768    0.8085693414 -0.027027027027
N28        N    0.2546931957    0.9418293894    0.8085846339 -0.027027027027
C29        C    0.2469481422    0.9092521957    0.8334141779 -0.027027027027
N30        N    0.2795504415    0.9170197894    0.8582284294 -0.027027027027
C31        C    0.9620204785    0.3154451371    0.1416300230 -0.027027027027
N32        N    0.9945880799    0.3231990464    0.1664711487 -0.027027027027
C33        C    0.9868214658    0.2905950588    0.1912836893 -0.027027027027
N34        N    0.9464872502    0.2502371619    0.1912551043 -0.027027027027
C35        C    0.9139196489    0.2424832526    0.1664139786 -0.027027027027
N36        N    0.9216862630    0.2750872402    0.1416014380 -0.027027027027
C37        C    0.3718251521    1.0205478033    0.5247675108 -0.027027027027
N38        N    0.4120141256    1.0205536281    0.5247783184 -0.027027027027
C39        C    0.4196557855    0.9956148451    0.4998388059 -0.027027027027
N40        N    0.3871084718    0.9706702373    0.4748884858 -0.027027027027
C41        C    0.3469194982    0.9706644126    0.4748776781 -0.027027027027
N42        N    0.3392778384    0.9956031956    0.4998171906 -0.027027027027
C43        C    0.0137419770    0.3043647227    0.8078597299 -0.027027027027
N44        N    0.0061223482    0.3293284636    0.8327877026 -0.027027027027
C45        C    0.0386460973    0.3542081771    0.8577742490 -0.027027027027
N46        N    0.0787894751    0.3541241498    0.8578328228 -0.027027027027
C47        C    0.0864091038    0.3291604089    0.8329048501 -0.027027027027
N48        N    0.0538853548    0.3042806953    0.8079183036 -0.027027027027
C49        C    0.6801099465    0.6370418194    0.1417225189 -0.027027027027
N50        N    0.7202537829    0.6369582776    0.1417411284 -0.027027027027
C51        C    0.7528210651    0.6618651287    0.1666910559 -0.027027027027
N52        N    0.7452445109    0.6868555214    0.1916223739 -0.027027027027
C53        C    0.7051006745    0.6869390632    0.1916037645 -0.027027027027
N54        N    0.6725333923    0.6620322122    0.1666538370 -0.027027027027
C55        C    0.6277816057    0.9702428236    0.4751216381 -0.027027027027
N56        N    0.6603448874    0.9951981240    0.5000582987 -0.027027027027
C57        C    0.6527286547    1.0201663889    0.5249866147 -0.027027027027
N58        N    0.6125491403    1.0201793533    0.5249782700 -0.027027027027
C59        C    0.5799858586    0.9952240529    0.5000416094 -0.027027027027
N60        N    0.5876020913    0.9702557880    0.4751132935 -0.027027027027
C61        C    0.3191085744    0.3529140457    0.8587416309 -0.027027027027
N62        N    0.3267169910    0.3279287742    0.8338267978 -0.027027027027
C63        C    0.2941770217    0.3030176952    0.8088598096 -0.027027027027
N64        N    0.2540286356    0.3030918878    0.8088076545 -0.027027027027
C65        C    0.2464202190    0.3280771593    0.8337224876 -0.027027027027
N66        N    0.2789601884    0.3529882382    0.8586894758 -0.027027027027
C67        C    0.9859160889    0.6863408788    0.1919533183 -0.027027027027
N68        N    0.9457327615    0.6863463874    0.1919578043 -0.027027027027
C69        C    0.9131688240    0.6614089887    0.1670141755 -0.027027027027
N70        N    0.9207882138    0.6364660813    0.1420660608 -0.027027027027
C71        C    0.9609715412    0.6364605727    0.1420615748 -0.027027027027
N72        N    0.9935354787    0.6613979715    0.1670052035 -0.027027027027
C73        C    0.3460548019    0.3664960227    0.4752065835 -0.027027027027
N74        N    0.3383021926    0.3339079861    0.5000279397 -0.027027027027
C75        C    0.3708750786    0.3416865525    0.5248735816 -0.027027027027
N76        N    0.4112005739    0.3820531556    0.5248978673 -0.027027027027
C77        C    0.4189531831    0.4146411921    0.5000765111 -0.027027027027
N78        N    0.3863802971    0.4068626257    0.4752308692 -0.027027027027
C79        C    0.0127266802    0.6998880104    0.8085838425 -0.027027027027
N80        N    0.0530573952    0.7402494246    0.8085792849 -0.027027027027
C81        C    0.0856584009    0.7480334184    0.8333995639 -0.027027027027
N82        N    0.0779286917    0.7154559979    0.8582244005 -0.027027027027
C83        C    0.0375979767    0.6750945836    0.8582289582 -0.027027027027
N84        N    0.0049969709    0.6673105899    0.8334086792 -0.027027027027
C85        C    0.6797207544    0.0330654076    0.1416105996 -0.027027027027
N86        N    0.7200767656    0.0734015189    0.1415864957 -0.027027027027
C87        C    0.7526816430    0.0811634758    0.1663966251 -0.027027027027
N88        N    0.7449305092    0.0485893213    0.1912308584 -0.027027027027
C89        C    0.7045744981    0.0082532100    0.1912549623 -0.027027027027
N90        N    0.6719696207    0.0004912532    0.1664448330 -0.027027027027
C91        C    0.9744117073    0.6231781799    0.5247476378 -0.027027027027
N92        N    0.9993517146    0.6557533542    0.4998144880 -0.027027027027
C93        C    1.0243257385    0.6481594222    0.4748767662 -0.027027027027
N94        N    1.0243597551    0.6079903159    0.4748721942 -0.027027027027
C95        C    0.9994197478    0.5754151416    0.4998053439 -0.027027027027
N96        N    0.9744457239    0.5830090736    0.5247430657 -0.027027027027
C97        C    0.6906942731    0.9813230384    0.8077394513 -0.027027027027
N98        N    0.6907755077    0.9411781124    0.8078012330 -0.027027027027
C99        C    0.6658710087    0.9086452184    0.8327749274 -0.027027027027
N100       N    0.6408852753    0.9162572506    0.8576868399 -0.027027027027
C101       C    0.6408040407    0.9564021767    0.8576250582 -0.027027027027
N102       N    0.6657085397    0.9889350706    0.8326513638 -0.027027027027
C103       C    0.3576310403    0.3147015375    0.1415145172 -0.027027027027
N104       N    0.3576937781    0.2745469977    0.1415255282 -0.027027027027
C105       C    0.3327709286    0.2419753117    0.1664681976 -0.027027027027
N106       N    0.3077853414    0.2495581654    0.1913998558 -0.027027027027
C107       C    0.3077226037    0.2897127051    0.1913888448 -0.027027027027
N108       N    0.3326454531    0.3222843912    0.1664461754 -0.027027027027
O109       O    1.0415553396    0.4805308321    0.9735476820 -0.027027027027
O110       O    1.0237783718    0.5432397821    1.0374835898 -0.027027027027
O111       O    1.0239640645    0.4717305046    1.0373289706 -0.027027027027
O112       O    1.0413696398    0.5520453253    0.9737023150 -0.027027027027
O113       O    0.9757120904    0.5188120012    0.9625983264 -0.027027027027
O114       O    0.9583079043    0.4384978774    1.0262203522 -0.027027027027
O115       O    0.9581208224    0.5100064580    1.0263796011 -0.027027027027
O116       O    0.9758977903    0.4472975079    0.9624436933 -0.027027027027
Cu117     Cu    1.0386579378    0.5149194020    1.0065309615             1.0
Cu118     Cu    0.9610182243    0.4756178881    0.9933963217             1.0
C119       C    1.0113467518    0.4546669893    0.9585687800 -0.027027027027
C120       C    0.9883294102    0.5358703008    1.0413585032 -0.027027027027
C121       C    0.9885731603    0.4432732038    1.0411531267 -0.027027027027
C122       C    1.0111030018    0.5472640862    0.9587741564 -0.027027027027
O123       O    0.6907250446    0.8768003126    0.3708183595 -0.027027027027
O124       O    0.7084247431    0.8138832045    0.3070271289 -0.027027027027
O125       O    0.7083444478    0.8854453579    0.3070415755 -0.027027027027
O126       O    0.6908053530    0.8052329465    0.3708039115 -0.027027027027
O127       O    0.6251531480    0.7720488972    0.3596803032 -0.027027027027
O128       O    0.6426910660    0.8522607314    0.2959226330 -0.027027027027
O129       O    0.6427725381    0.7806991552    0.2959035206 -0.027027027027
O130       O    0.6250728396    0.8436162633    0.3596947512 -0.027027027027
Cu131     Cu    0.7055666077    0.8483686386    0.3399358226             1.0
Cu132     Cu    0.6279309750    0.8091308292    0.3267860575             1.0
C133       C    0.6552884188    0.8694852850    0.3746618371 -0.027027027027
C134       C    0.6782091639    0.7880141828    0.2920600430 -0.027027027027
C135       C    0.6781054669    0.8806815708    0.2920845120 -0.027027027027
C136       C    0.6553921158    0.7768178969    0.3746373682 -0.027027027027
O137       O    0.3745783341    0.1470854865    0.6402853955 -0.027027027027
O138       O    0.3568061759    0.2098501615    0.7041724717 -0.027027027027
O139       O    0.3569671415    0.1383284672    0.7040634347 -0.027027027027
O140       O    0.3744173632    0.2186123974    0.6403944431 -0.027027027027
O141       O    0.3087632772    0.1853891150    0.6292778459 -0.027027027027
O142       O    0.2913144460    0.1051058785    0.6929422079 -0.027027027027
O143       O    0.2911520898    0.1766268791    0.6930558744 -0.027027027027
O144       O    0.3089242481    0.1138622041    0.6291687983 -0.027027027027
Cu145     Cu    0.3716830210    0.1815010042    0.6732454086             1.0
Cu146     Cu    0.2940474030    0.1422113614    0.6600958613             1.0
C147       C    0.3443707686    0.1212184484    0.6253073894 -0.027027027027
C148       C    0.3213596554    0.2024939171    0.7080338805 -0.027027027027
C149       C    0.3215713874    0.1098807375    0.7078875300 -0.027027027027
C150       C    0.3441590366    0.2138316281    0.6254537400 -0.027027027027
O151       O    0.5148939839    0.5521417069   -0.0259189013 -0.027027027027
O152       O    0.4517654799    0.4714129398    0.0377179507 -0.027027027027
O153       O    0.5236632614    0.5432898884    0.0377538421 -0.027027027027
O154       O    0.4429909584    0.4802595224   -0.0259547927 -0.027027027027
O155       O    0.4756739835    0.4475619967   -0.0374612560 -0.027027027027
O156       O    0.5563455927    0.5105930597    0.0262427575 -0.027027027027
O157       O    0.4844485050    0.4387154141    0.0262114873 -0.027027027027
O158       O    0.5475770089    0.5194441813   -0.0374253647 -0.027027027027
Cu159     Cu    0.4803458452    0.5147592448    0.0069515707             1.0
Cu160     Cu    0.5189966436    0.4760978763   -0.0066589847             1.0
C161       C    0.5405445340    0.5476961162   -0.0410549506 -0.027027027027
C162       C    0.4587979548    0.4431610049    0.0413475366 -0.027027027027
C163       C    0.5518981507    0.5362375116    0.0413888763 -0.027027027027
C164       C    0.4474443381    0.4546196095   -0.0410962903 -0.027027027027
O165       O    0.1817392614    0.8852446014    0.3072314807 -0.027027027027
O166       O    0.1186510410    0.8045736666    0.3709169960 -0.027027027027
O167       O    0.1905396641    0.8764597996    0.3709105452 -0.027027027027
O168       O    0.1098453950    0.8133532318    0.3072379347 -0.027027027027
O169       O    0.1425361594    0.7806570979    0.2957544328 -0.027027027027
O170       O    0.2232297323    0.8437643578    0.3594224216 -0.027027027027
O171       O    0.1513418053    0.7718775327    0.3594334942 -0.027027027027
O172       O    0.2144300258    0.8525484675    0.2957479789 -0.027027027027
Cu173     Cu    0.1472105594    0.8478909304    0.3401241902             1.0
Cu174     Cu    0.1858705073    0.8092312038    0.3265407847             1.0
C175       C    0.2073877417    0.8807911799    0.2920997370 -0.027027027027
C176       C    0.1256933250    0.7763309543    0.3745652379 -0.027027027027
C177       C    0.2187816586    0.8694193483    0.3745517466 -0.027027027027
C178       C    0.1142994082    0.7877027858    0.2921132283 -0.027027027027
O179       O    0.8093510626    0.1143158630    0.6288272355 -0.027027027027
O180       O    0.8900365204    0.1773855728    0.6925084327 -0.027027027027
O181       O    0.8181454656    0.1055018720    0.6925022241 -0.027027027027
O182       O    0.8812473612    0.1862047999    0.6288334449 -0.027027027027
O183       O    0.8485598530    0.2188995581    0.6403337080 -0.027027027027
O184       O    0.7854573714    0.1381972206    0.7039978283 -0.027027027027
O185       O    0.8573490122    0.2100803310    0.7040086958 -0.027027027027
O186       O    0.7766635544    0.1470106212    0.6403274987 -0.027027027027
Cu187     Cu    0.8526786425    0.1428684906    0.6596203803             1.0
Cu188     Cu    0.8140214323    0.1815277034    0.6732155511             1.0
C189       C    0.7811096601    0.1213637349    0.6251883139 -0.027027027027
C190       C    0.8855904147    0.2030324591    0.7076476175 -0.027027027027
C191       C    0.7924974262    0.1099487209    0.7076338146 -0.027027027027
C192       C    0.8742026486    0.2144474731    0.6252021168 -0.027027027027
O193       O    0.5233569044    0.9712550853    1.0372961978 -0.027027027027
O194       O    0.4430312702    0.9538279568    0.9736812465 -0.027027027027
O195       O    0.5145533121    0.9536680136    0.9735142441 -0.027027027027
O196       O    0.4518296455    0.9714150328    1.0374632121 -0.027027027027
O197       O    0.4850430343    1.0370731011    1.0263598922 -0.027027027027
O198       O    0.5477672868    1.0193272565    0.9624155904 -0.027027027027
O199       O    0.4762446590    1.0194860251    0.9625779267 -0.027027027027
O200       O    0.5565702932    1.0369131536    1.0261928780 -0.027027027027
Cu201     Cu    0.4801612546    0.9565492786    1.0064999531             1.0
Cu202     Cu    0.5194403087    1.0341918318    0.9933741713             1.0
C203       C    0.5518081968    1.0066544519    1.0411238268 -0.027027027027
C204       C    0.4477933666    0.9840866584    0.9587502976 -0.027027027027
C205       C    0.5404084996    0.9838792631    0.9585398046 -0.027027027027
C206       C    0.4591930638    1.0068618472    1.0413343199 -0.027027027027
O207       O    0.1095466893    0.2868064828    0.3070184610 -0.027027027027
O208       O    0.1897712186    0.3042737899    0.3707397974 -0.027027027027
O209       O    0.1182465018    0.3044279309    0.3707948263 -0.027027027027
O210       O    0.1810766163    0.2866523241    0.3069634307 -0.027027027027
O211       O    0.2143034708    0.3523048835    0.2958402558 -0.027027027027
O212       O    0.1514726695    0.3700790989    0.3596670220 -0.027027027027
O213       O    0.2229980731    0.3699263492    0.3596166225 -0.027027027027
O214       O    0.1427735437    0.3524590421    0.2958952861 -0.027027027027
Cu215     Cu    0.1466287153    0.2895495028    0.3398962007             1.0
Cu216     Cu    0.1859160471    0.3671833292    0.3267388828             1.0
C217       C    0.1143313009    0.3170582363    0.2920616048 -0.027027027027
C218       C    0.2182134614    0.3396745957    0.3745734787 -0.027027027027
C219       C    0.1255930650    0.3398709005    0.3746395806 -0.027027027027
C220       C    0.2069516974    0.3168619315    0.2919955029 -0.027027027027
O221       O    0.8180592054    0.7032760048    0.6931757295 -0.027027027027
O222       O    0.8807810615    0.6854833360    0.6292620063 -0.027027027027
O223       O    0.8092677716    0.6856604878    0.6293985230 -0.027027027027
O224       O    0.8895777112    0.7030988465    0.6930392002 -0.027027027027
O225       O    0.8563490391    0.6374452836    0.7041587326 -0.027027027027
O226       O    0.7760397958    0.6200083157    0.6405226849 -0.027027027027
O227       O    0.8475523894    0.6198297731    0.6403815387 -0.027027027027
O228       O    0.7848305332    0.6376224418    0.7042952620 -0.027027027027
Cu229     Cu    0.8524538042    0.7003703881    0.6602021244             1.0
Cu230     Cu    0.8131577906    0.6227353897    0.6733551438             1.0
C231       C    0.7921957857    0.6730717251    0.7081591325 -0.027027027027
C232       C    0.8734158090    0.6500340527    0.6253981358 -0.027027027027
C233       C    0.7808135156    0.6502667449    0.6255800702 -0.027027027027
C234       C    0.8847980791    0.6728390329    0.7079771980 -0.027027027027
C675       C    0.2493876200    0.3054338219    0.2060920731 -0.027027027027
C676       C    0.2825807014    0.2964863189    0.2164897678 -0.027027027027
C677       C    0.2905302320    0.2943398153    0.2520898686 -0.027027027027
C678       C    0.2652866811    0.3011408148    0.2772922746 -0.027027027027
C679       C    0.2320935996    0.3100883178    0.2668945798 -0.027027027027
C680       C    0.2241440691    0.3122348213    0.2312944791 -0.027027027027
H681       H    0.2435029025    0.3070227920    0.1797387517 -0.027027027027
H682       H    0.3150998845    0.2877168375    0.2597873319 -0.027027027027
H683       H    0.2711713985    0.2995518446    0.3036455959 -0.027027027027
H684       H    0.1995744165    0.3188577992    0.2235970157 -0.027027027027
C665       C    0.4203554440    0.3480134437    0.1018057855 -0.027027027027
C666       C    0.3828777946    0.3467592969    0.1165173018 -0.027027027027
C667       C    0.3707368482    0.3776771244    0.1061425432 -0.027027027027
C668       C    0.3960735512    0.4098490987    0.0810562682 -0.027027027027
C669       C    0.4335512005    0.4111032454    0.0663447520 -0.027027027027
C670       C    0.4456921469    0.3801854179    0.0767195106 -0.027027027027
H671       H    0.4293428978    0.3251262208    0.1094858017 -0.027027027027
H672       H    0.3429956412    0.3767497879    0.1170316269 -0.027027027027
H673       H    0.3870860973    0.4327363216    0.0733762521 -0.027027027027
H674       H    0.4734333540    0.3811127544    0.0658304269 -0.027027027027
C655       C    0.6979582838    1.0354093456    0.7646229253 -0.027027027027
C656       C    0.7161280883    1.0134580140    0.7827297322 -0.027027027027
C657       C    0.7597656541    1.0236845480    0.7757934398 -0.027027027027
C658       C    0.7852334155    1.0558624137    0.7507503406 -0.027027027027
C659       C    0.7670636110    1.0778137454    0.7326435337 -0.027027027027
C660       C    0.7234260452    1.0675872114    0.7395798260 -0.027027027027
H661       H    0.6656551507    1.0278390542    0.7697575833 -0.027027027027
H662       H    0.7732162598    1.0074365740    0.7891958145 -0.027027027027
H663       H    0.8175365486    1.0634327052    0.7456156826 -0.027027027027
H664       H    0.7099754395    1.0838351854    0.7261774514 -0.027027027027
C645       C    0.6327729741    1.0049601830    0.8987449649 -0.027027027027
C646       C    0.6157363564    0.9632629089    0.8828223824 -0.027027027027
C647       C    0.5735696525    0.9284434459    0.8921598488 -0.027027027027
C648       C    0.5484395662    0.9353212568    0.9174198978 -0.027027027027
C649       C    0.5654761839    0.9770185309    0.9333424803 -0.027027027027
C650       C    0.6076428878    1.0118379939    0.9240050139 -0.027027027027
H651       H    0.6639872874    1.0307356297    0.8918328145 -0.027027027027
H652       H    0.5609578742    0.8975781699    0.8803743053 -0.027027027027
H653       H    0.5172252529    0.9095458102    0.9243320483 -0.027027027027
H654       H    0.6202546661    1.0427032699    0.9357905574 -0.027027027027
C635       C    0.9551497829    0.6248718226    0.5854018498 -0.027027027027
C636       C    0.9492055697    0.6298807573    0.5498675718 -0.027027027027
C637       C    0.9179695449    0.6416150511    0.5395386088 -0.027027027027
C638       C    0.8926777334    0.6483404101    0.5647439238 -0.027027027027
C639       C    0.8986219466    0.6433314753    0.6002782018 -0.027027027027
C640       C    0.9298579713    0.6315971816    0.6106071648 -0.027027027027
H641       H    0.9782725545    0.6161853974    0.5930479653 -0.027027027027
H642       H    0.9135686709    0.6453230181    0.5132359356 -0.027027027027
H643       H    0.8695549618    0.6570268353    0.5570978083 -0.027027027027
H644       H    0.9342588454    0.6278892146    0.6369098380 -0.027027027027
C625       C    1.0611283984    0.6674784729    0.4185249095 -0.027027027027
C626       C    1.0496249016    0.6801482719    0.4498411725 -0.027027027027
C627       C    1.0635060349    0.7249149873    0.4560372651 -0.027027027027
C628       C    1.0888906651    0.7570119036    0.4309170947 -0.027027027027
C629       C    1.1003941619    0.7443421045    0.3996008316 -0.027027027027
C630       C    1.0865130286    0.6995753892    0.3934047390 -0.027027027027
H631       H    1.0508527542    0.6343394758    0.4139381915 -0.027027027027
H632       H    1.0549916268    0.7342945442    0.4792176478 -0.027027027027
H633       H    1.0991663093    0.7901509006    0.4355038126 -0.027027027027
H634       H    1.0950274367    0.6901958322    0.3702243563 -0.027027027027
C615       C    0.6202461443   -0.0159557424    0.1024026327 -0.027027027027
C616       C    0.6477028868    0.0264544657    0.1164576964 -0.027027027027
C617       C    0.6432212180    0.0622701378    0.1054222769 -0.027027027027
C618       C    0.6112828068    0.0556756019    0.0803317938 -0.027027027027
C619       C    0.5838260644    0.0132653938    0.0662767301 -0.027027027027
C620       C    0.5883077332   -0.0225502783    0.0773121496 -0.027027027027
H621       H    0.6235637433   -0.0424686425    0.1105717094 -0.027027027027
H622       H    0.6635444593    0.0936631566    0.1158254358 -0.027027027027
H623       H    0.6079652079    0.0821885020    0.0721627170 -0.027027027027
H624       H    0.5679844919   -0.0539432971    0.0669089906 -0.027027027027
C605       C    0.6926213472   -0.0646768418    0.2061393841 -0.027027027027
C606       C    0.6979489557   -0.0236796288    0.2164939087 -0.027027027027
C607       C    0.6966675909   -0.0145353965    0.2520242617 -0.027027027027
C608       C    0.6900586177   -0.0463883773    0.2772000901 -0.027027027027
C609       C    0.6847310093   -0.0873855903    0.2668455656 -0.027027027027
C610       C    0.6860123740   -0.0965298226    0.2313152126 -0.027027027027
H611       H    0.6935698900   -0.0714459489    0.1798376943 -0.027027027027
H612       H    0.7006110272    0.0158108843    0.2596897684 -0.027027027027
H613       H    0.6891100750   -0.0396192703    0.3035017800 -0.027027027027
H614       H    0.6820689378   -0.1268761034    0.2236497059 -0.027027027027
C595       C   -0.0917110681    0.6461679024    0.7573663182 -0.027027027027
C596       C   -0.0831898174    0.6796076105    0.7331524152 -0.027027027027
C597       C   -0.0427163697    0.7198032298    0.7340666173 -0.027027027027
C598       C   -0.0107641726    0.7265591409    0.7591947224 -0.027027027027
C599       C   -0.0192854233    0.6931194328    0.7834086254 -0.027027027027
C600       C   -0.0597588710    0.6529238135    0.7824944233 -0.027027027027
H601       H   -0.1216719320    0.6164127037    0.7566895712 -0.027027027027
H602       H   -0.0364076894    0.7445564550    0.7161436012 -0.027027027027
H603       H    0.0191966913    0.7563143396    0.7598714693 -0.027027027027
H604       H   -0.0660675513    0.6281705883    0.8004174393 -0.027027027027
C585       C   -0.0058602979    0.6001228358    0.8809837398 -0.027027027027
C586       C    0.0309674475    0.6431042214    0.8833910077 -0.027027027027
C587       C    0.0611782346    0.6541607205    0.9109088252 -0.027027027027
C588       C    0.0545612763    0.6222358340    0.9360193747 -0.027027027027
C589       C    0.0177335310    0.5792544485    0.9336121068 -0.027027027027
C590       C   -0.0124772561    0.5681979494    0.9060942894 -0.027027027027
H591       H   -0.0282241273    0.5919381547    0.8606134074 -0.027027027027
H592       H    0.0884389569    0.6859757392    0.9126915472 -0.027027027027
H593       H    0.0769251057    0.6304205152    0.9563897071 -0.027027027027
H594       H   -0.0397379785    0.5363829306    0.9043115674 -0.027027027027
C575       C    0.3041309954    0.3933077810    0.4432898893 -0.027027027027
C576       C    0.3140622658    0.3597839101    0.4500229597 -0.027027027027
C577       C    0.2920654021    0.3195614383    0.4316231014 -0.027027027027
C578       C    0.2601372679    0.3128628374    0.4064901729 -0.027027027027
C579       C    0.2502059975    0.3463867083    0.3997571026 -0.027027027027
C580       C    0.2722028612    0.3866091800    0.4181569608 -0.027027027027
H581       H    0.3204143881    0.4230828575    0.4569105636 -0.027027027027
H582       H    0.2994157970    0.2947459153    0.4366063139 -0.027027027027
H583       H    0.2438538752    0.2830877609    0.3928694986 -0.027027027027
H584       H    0.2648524663    0.4114247030    0.4131737484 -0.027027027027
C565       C    0.3604374565    0.2693405269    0.5397133897 -0.027027027027
C566       C    0.3641895861    0.3096918006    0.5500430245 -0.027027027027
C567       C    0.3612691872    0.3181103639    0.5854932955 -0.027027027027
C568       C    0.3545966587    0.2861776536    0.6106139319 -0.027027027027
C569       C    0.3508445291    0.2458263800    0.6002842971 -0.027027027027
C570       C    0.3537649279    0.2374078166    0.5648340260 -0.027027027027
H571       H    0.3625993102    0.2631086034    0.5134709812 -0.027027027027
H572       H    0.3640464079    0.3479784997    0.5931403764 -0.027027027027
H573       H    0.3524348050    0.2924095772    0.6368563404 -0.027027027027
H574       H    0.3509877073    0.2075396809    0.5571869452 -0.027027027027
C555       C    1.0942267506    0.7476052253    0.2371651291 -0.027027027027
C556       C    1.0822602331    0.7624070395    0.2671174508 -0.027027027027
C557       C    1.0381412311    0.7518236465    0.2719855949 -0.027027027027
C558       C    1.0059887465    0.7264384394    0.2469014175 -0.027027027027
C559       C    1.0179552639    0.7116366251    0.2169490958 -0.027027027027
C560       C    1.0620742659    0.7222200181    0.2120809516 -0.027027027027
H561       H    1.1268862715    0.7554396850    0.2335614380 -0.027027027027
H562       H    1.0292822612    0.7627795619    0.2941563510 -0.027027027027
H563       H    0.9733292255    0.7186039797    0.2505051086 -0.027027027027
H564       H    1.0709332358    0.7112641027    0.1899101955 -0.027027027027
C545       C    0.9861699199    0.5853060117    0.1266154000 -0.027027027027
C546       C    0.9677991302    0.6113566789    0.1169295300 -0.027027027027
C547       C    0.9562796860    0.6122161040    0.0820241690 -0.027027027027
C548       C    0.9631310315    0.5870248618    0.0568046779 -0.027027027027
C549       C    0.9815018212    0.5609741946    0.0664905479 -0.027027027027
C550       C    0.9930212654    0.5601147695    0.1013959089 -0.027027027027
H551       H    0.9946973007    0.5846698140    0.1524544335 -0.027027027027
H552       H    0.9426813282    0.6314987425    0.0748536178 -0.027027027027
H553       H    0.9546036507    0.5876610595    0.0309656444 -0.027027027027
H554       H    1.0066196232    0.5408321310    0.1085664601 -0.027027027027
C535       C    0.3341227451    0.2991563583    0.7583119955 -0.027027027027
C536       C    0.3009592102    0.2779365635    0.7837032898 -0.027027027027
C537       C    0.2746048036    0.2315360113    0.7838381394 -0.027027027027
C538       C    0.2814139319    0.2063552540    0.7585816946 -0.027027027027
C539       C    0.3145774668    0.2275750489    0.7331904003 -0.027027027027
C540       C    0.3409318734    0.2739756010    0.7330555508 -0.027027027027
H541       H    0.3536318513    0.3335048190    0.7582121718 -0.027027027027
H542       H    0.2500564389    0.2158277262    0.8026326895 -0.027027027027
H543       H    0.2619048257    0.1720067934    0.7586815183 -0.027027027027
H544       H    0.3654802382    0.2896838862    0.7142610007 -0.027027027027
C525       C    0.3386937833    0.3909712811    0.9146008813 -0.027027027027
C526       C    0.3511472211    0.3783045411    0.8837467999 -0.027027027027
C527       C    0.3957298941    0.3911000876    0.8779685889 -0.027027027027
C528       C    0.4278591292    0.4165623741    0.9030444594 -0.027027027027
C529       C    0.4154056914    0.4292291140    0.9338985408 -0.027027027027
C530       C    0.3708230184    0.4164335675    0.9396767518 -0.027027027027
H531       H    0.3056910253    0.3814992531    0.9188782583 -0.027027027027
H532       H    0.4049492954    0.3817246167    0.8551303246 -0.027027027027
H533       H    0.4608618871    0.4260344020    0.8987670824 -0.027027027027
H534       H    0.3616036171    0.4258090384    0.9625150160 -0.027027027027
C515       C    0.6273485608    0.9028794483    0.4585794427 -0.027027027027
C516       C    0.6346467163    0.9450959031    0.4500490265 -0.027027027027
C517       C    0.6488331677    0.9620805091    0.4163613215 -0.027027027027
C518       C    0.6557214637    0.9368486603    0.3912040326 -0.027027027027
C519       C    0.6484233082    0.8946322055    0.3997344487 -0.027027027027
C520       C    0.6342368568    0.8776475995    0.4334221538 -0.027027027027
H521       H    0.6168469020    0.8903064283    0.4835170945 -0.027027027027
H522       H    0.6542356854    0.9933295164    0.4100460717 -0.027027027027
H523       H    0.6662231225    0.9494216803    0.3662663808 -0.027027027027
H524       H    0.6288343391    0.8463985922    0.4397374036 -0.027027027027
C505       C    0.7097906710    1.0288384587    0.5655136986 -0.027027027027
C506       C    0.6847659015    1.0454200028    0.5499917668 -0.027027027027
C507       C    0.6918943879    1.0873466061    0.5595655325 -0.027027027027
C508       C    0.7240476438    1.1126916651    0.5846612300 -0.027027027027
C509       C    0.7490724133    1.0961101210    0.6001831618 -0.027027027027
C510       C    0.7419439269    1.0541835177    0.5906093961 -0.027027027027
H511       H    0.7045137395    0.9978018823    0.5584266252 -0.027027027027
H512       H    0.6733713681    1.0996215330    0.5480765568 -0.027027027027
H513       H    0.7293245753    1.1437282415    0.5917483034 -0.027027027027
H514       H    0.7604669467    1.0419085908    0.6020983718 -0.027027027027
C495       C    0.6586393857    0.7130028269    0.2170713178 -0.027027027027
C496       C    0.6983922507    0.7121535164    0.2166638400 -0.027027027027
C497       C    0.7314077843    0.7366273125    0.2414244260 -0.027027027027
C498       C    0.7246704527    0.7619504191    0.2665924897 -0.027027027027
C499       C    0.6849175877    0.7627997296    0.2669999675 -0.027027027027
C500       C    0.6519020541    0.7383259335    0.2422393815 -0.027027027027
H501       H    0.6341993154    0.6948858609    0.1987420528 -0.027027027027
H502       H    0.7608337585    0.7359994304    0.2411235959 -0.027027027027
H503       H    0.7491105230    0.7800673851    0.2849217546 -0.027027027027
H504       H    0.6224760799    0.7389538156    0.2425402115 -0.027027027027
C485       C    0.5708329241    0.5650879860    0.1003462609 -0.027027027027
C486       C    0.5838790303    0.5613819252    0.0664158882 -0.027027027027
C487       C    0.6290501548    0.5829336047    0.0576253249 -0.027027027027
C488       C    0.6611751731    0.6081913450    0.0827651343 -0.027027027027
C489       C    0.6481290670    0.6118974058    0.1166955070 -0.027027027027
C490       C    0.6029579425    0.5903457263    0.1254860704 -0.027027027027
H491       H    0.5373945592    0.5491341454    0.1068535611 -0.027027027027
H492       H    0.6387082657    0.5801910738    0.0325099053 -0.027027027027
H493       H    0.6946135380    0.6241451857    0.0762578342 -0.027027027027
H494       H    0.5932998315    0.5930882573    0.1506014899 -0.027027027027
C475       C    0.8205560603    0.6763776278    0.1373107594 -0.027027027027
C476       C    0.7928646866    0.6617512169    0.1667717485 -0.027027027027
C477       C    0.8053035709    0.6470106477    0.1963136048 -0.027027027027
C478       C    0.8454338288    0.6468964895    0.1963944720 -0.027027027027
C479       C    0.8731252025    0.6615229004    0.1669334829 -0.027027027027
C480       C    0.8606863182    0.6762634696    0.1373916266 -0.027027027027
H481       H    0.8113480550    0.6872894777    0.1154421125 -0.027027027027
H482       H    0.7848069082    0.6361837638    0.2181214592 -0.027027027027
H483       H    0.8546418341    0.6359846396    0.2182631189 -0.027027027027
H484       H    0.8811829809    0.6870903535    0.1155837723 -0.027027027027
C465       C   -0.0610841616    0.2098305692    0.7511684357 -0.027027027027
C466       C   -0.0824441565    0.2283082279    0.7326439818 -0.027027027027
C467       C   -0.0716937991    0.2721762495    0.7392292199 -0.027027027027
C468       C   -0.0395834467    0.2975666125    0.7643389117 -0.027027027027
C469       C   -0.0182234518    0.2790889539    0.7828633655 -0.027027027027
C470       C   -0.0289738093    0.2352209322    0.7762781275 -0.027027027027
H471       H   -0.0690422184    0.1773568389    0.7462936491 -0.027027027027
H472       H   -0.0875040512    0.2858547351    0.7255176934 -0.027027027027
H473       H   -0.0316253900    0.3300403429    0.7692136983 -0.027027027027
H474       H   -0.0131635571    0.2215424467    0.7899896540 -0.027027027027
C455       C    0.1602986919    0.3565458676    0.8562178234 -0.027027027027
C456       C    0.1263651195    0.3288899131    0.8331090205 -0.027027027027
C457       C    0.1324810890    0.3009628296    0.8102048659 -0.027027027027
C458       C    0.1725306309    0.3006917006    0.8104095142 -0.027027027027
C459       C    0.2064642033    0.3283476551    0.8335183172 -0.027027027027
C460       C    0.2003482338    0.3562747386    0.8564224718 -0.027027027027
H461       H    0.1557712859    0.3772191631    0.8731728470 -0.027027027027
H462       H    0.1073637729    0.2804911065    0.7930990873 -0.027027027027
H463       H    0.1770580369    0.2800184050    0.7934544907 -0.027027027027
H464       H    0.2254655499    0.3767464616    0.8735282504 -0.027027027027
C445       C    0.0210522891    0.4112086089    0.8726122133 -0.027027027027
C446       C    0.0318353597    0.3792709981    0.8829208263 -0.027027027027
C447       C    0.0357794952    0.3724999724    0.9184801274 -0.027027027027
C448       C    0.0289405600    0.3976665576    0.9437308156 -0.027027027027
C449       C    0.0181574894    0.4296041684    0.9334222027 -0.027027027027
C450       C    0.0142133539    0.4363751940    0.8978629015 -0.027027027027
H451       H    0.0181326044    0.4162209266    0.8462890943 -0.027027027027
H452       H    0.0437612105    0.3488596522    0.9261116515 -0.027027027027
H453       H    0.0318602447    0.3926542399    0.9700539347 -0.027027027027
H454       H    0.0062316386    0.4600155143    0.8902313775 -0.027027027027
C435       C    0.3675116827    1.0856690052    0.5403883799 -0.027027027027
C436       C    0.3649742868    1.0456687837    0.5498558602 -0.027027027027
C437       C    0.3555605644    1.0308829044    0.5845049304 -0.027027027027
C438       C    0.3486842380    1.0560972466    0.6096865203 -0.027027027027
C439       C    0.3512216339    1.0960974680    0.6002190400 -0.027027027027
C440       C    0.3606353562    1.1108833473    0.5655699698 -0.027027027027
H441       H    0.3744802823    1.0966143963    0.5147390682 -0.027027027027
H442       H    0.3536820951    1.0012744148    0.5915138222 -0.027027027027
H443       H    0.3417156383    1.0451518554    0.6353358319 -0.027027027027
H444       H    0.3625138256    1.1404918370    0.5585610780 -0.027027027027
C425       C    0.5288820404    1.0134695494    0.5283251451 -0.027027027027
C426       C    0.5399595234    0.9953216140    0.4999909796 -0.027027027027
C427       C    0.5108983051    0.9772715135    0.4716060422 -0.027027027027
C428       C    0.4707596037    0.9773693485    0.4715552703 -0.027027027027
C429       C    0.4596821206    0.9955172840    0.4998894358 -0.027027027027
C430       C    0.4887433390    1.0135673844    0.5282743731 -0.027027027027
H431       H    0.5503948903    1.0268313121    0.5493373715 -0.027027027027
H432       H    0.5190968989    0.9638379050    0.4506322954 -0.027027027027
H433       H    0.4492467537    0.9640075859    0.4505430439 -0.027027027027
H434       H    0.4805447451    1.0270009930    0.5492481200 -0.027027027027
C415       C    0.2819042841    0.9017275166    0.4574537981 -0.027027027027
C416       C    0.3149455978    0.9454009962    0.4498436105 -0.027027027027
C417       C    0.3158918921    0.9637153600    0.4171045248 -0.027027027027
C418       C    0.2837968727    0.9383562443    0.3919756266 -0.027027027027
C419       C    0.2507555590    0.8946827647    0.3995858142 -0.027027027027
C420       C    0.2498092647    0.8763684009    0.4323248999 -0.027027027027
H421       H    0.2812037805    0.8881701304    0.4816892252 -0.027027027027
H422       H    0.3403489851    0.9960428940    0.4114704548 -0.027027027027
H423       H    0.2844973763    0.9519136305    0.3677401995 -0.027027027027
H424       H    0.2253521717    0.8440408670    0.4379589699 -0.027027027027
C405       C    0.8333863668    0.2020545361    0.1664079927 -0.027027027027
C406       C    0.8736387558    0.2021819313    0.1664096433 -0.027027027027
C407       C    0.8735530349    0.1619507593    0.1664069525 -0.027027027027
C408       C    0.8332149250    0.1215921922    0.1664026110 -0.027027027027
C409       C    0.7929625360    0.1214647970    0.1664009604 -0.027027027027
C410       C    0.7930482569    0.1616959690    0.1664036512 -0.027027027027
H411       H    0.8334498226    0.2318360530    0.1664099847 -0.027027027027
H412       H    0.9033477075    0.1620437836    0.1664081742 -0.027027027027
H413       H    0.8331514693    0.0918106753    0.1664006191 -0.027027027027
H414       H    0.7632535844    0.1616029447    0.1664024295 -0.027027027027
C395       C    1.0456743084    0.3394975775    0.2309415499 -0.027027027027
C396       C    1.0187227689    0.2972158018    0.2164970137 -0.027027027027
C397       C    1.0236248438    0.2615448719    0.2272281108 -0.027027027027
C398       C    1.0554784582    0.2681557176    0.2524037442 -0.027027027027
C399       C    1.0824299978    0.3104374933    0.2668482804 -0.027027027027
C400       C    1.0775279229    0.3461084233    0.2561171833 -0.027027027027
H401       H    1.0420454998    0.3659033309    0.2229977508 -0.027027027027
H402       H    1.0036755652    0.2302469229    0.2165366561 -0.027027027027
H403       H    1.0591072669    0.2417499643    0.2603475433 -0.027027027027
H404       H    1.0974772015    0.3774063723    0.2668086381 -0.027027027027
C385       C    0.9581070937    0.3349562802    0.0814308550 -0.027027027027
C386       C    0.9686626840    0.3474215790    0.1164955301 -0.027027027027
C387       C    0.9858524097    0.3918244693    0.1264562500 -0.027027027027
C388       C    0.9924865451    0.4237620607    0.1013522947 -0.027027027027
C389       C    0.9819309548    0.4112967619    0.0662876197 -0.027027027027
C390       C    0.9647412291    0.3668938717    0.0563268998 -0.027027027027
H391       H    0.9453822318    0.3020866082    0.0740573351 -0.027027027027
H392       H    0.9936661641    0.4010526444    0.1524113131 -0.027027027027
H393       H    1.0052114070    0.4566317328    0.1087258146 -0.027027027027
H394       H    0.9569274747    0.3576656965    0.0303718367 -0.027027027027
C375       C    0.1863916691    0.8488946945    0.8651156147 -0.027027027027
C376       C    0.2066604891    0.8689822683    0.8334105276 -0.027027027027
C377       C    0.1865720915    0.8487303809    0.8017017838 -0.027027027027
C378       C    0.1462148740    0.8083909196    0.8016981271 -0.027027027027
C379       C    0.1259460540    0.7883033458    0.8334032142 -0.027027027027
C380       C    0.1460344516    0.8085552332    0.8651119580 -0.027027027027
H381       H    0.2012623011    0.8638863514    0.8885883212 -0.027027027027
H382       H    0.2015743643    0.8635984907    0.7782327874 -0.027027027027
H383       H    0.1313442420    0.7933992627    0.7782254207 -0.027027027027
H384       H    0.1310321788    0.7936871233    0.8885809544 -0.027027027027
C365       C    0.3874451745    1.0069152781    0.8898414491 -0.027027027027
C366       C    0.3519018552    0.9640514003    0.8833711416 -0.027027027027
C367       C    0.3483022612    0.9278617399    0.9020114098 -0.027027027027
C368       C    0.3802459865    0.9345359571    0.9271219854 -0.027027027027
C369       C    0.4157893057    0.9773998349    0.9335922929 -0.027027027027
C370       C    0.4193888997    1.0135894953    0.9149520248 -0.027027027027
H371       H    0.3901098090    1.0337050267    0.8760428091 -0.027027027027
H372       H    0.3219931087    0.8961329046    0.8972227011 -0.027027027027
H373       H    0.3775813520    0.9077462085    0.9409206255 -0.027027027027
H374       H    0.4456980522    1.0453183306    0.9197407335 -0.027027027027
C355       C    0.3157488916    1.0578770144    0.7936226120 -0.027027027027
C356       C    0.3016803125    1.0141347729    0.7833721183 -0.027027027027
C357       C    0.2942373888    1.0022852156    0.7479779419 -0.027027027027
C358       C    0.3008630443    1.0341778999    0.7228342594 -0.027027027027
C359       C    0.3149316234    1.0779201414    0.7330847531 -0.027027027027
C360       C    0.3223745471    1.0897696987    0.7684789295 -0.027027027027
H361       H    0.3212585884    1.0666487646    0.8198234958 -0.027027027027
H362       H    0.2838236410    0.9699069889    0.7403894428 -0.027027027027
H363       H    0.2953533475    1.0254061497    0.6966333756 -0.027027027027
H364       H    0.3327882949    1.1221479254    0.7760674286 -0.027027027027
C345       C    0.6909403636    0.5952983239    0.5599774376 -0.027027027027
C346       C    0.6850286712    0.6306714716    0.5502175121 -0.027027027027
C347       C    0.7110208602    0.6725713855    0.5655592415 -0.027027027027
C348       C    0.7429247415    0.6790981515    0.5906608964 -0.027027027027
C349       C    0.7488364339    0.6437250038    0.6004208219 -0.027027027027
C350       C    0.7228442449    0.6018250900    0.5850790925 -0.027027027027
H351       H    0.6716993925    0.5642815046    0.5486205730 -0.027027027027
H352       H    0.7066458691    0.6987557897    0.5583354648 -0.027027027027
H353       H    0.7621657126    0.7101149709    0.6020177611 -0.027027027027
H354       H    0.7272192360    0.5756406857    0.5923028692 -0.027027027027
C335       C    0.6035559564    0.6942663408    0.4458801019 -0.027027027027
C336       C    0.6350753659    0.6809949437    0.4501802096 -0.027027027027
C337       C    0.6733623088    0.6996422853    0.4293169077 -0.027027027027
C338       C    0.6801298421    0.7315610242    0.4041534980 -0.027027027027
C339       C    0.6486104327    0.7448324213    0.3998533903 -0.027027027027
C340       C    0.6103234898    0.7261850797    0.4207166922 -0.027027027027
H341       H    0.5752136740    0.6804624645    0.4613243644 -0.027027027027
H342       H    0.6966940753    0.6898194344    0.4324991719 -0.027027027027
H343       H    0.7084721245    0.7453649005    0.3887092355 -0.027027027027
H344       H    0.5869917233    0.7360079306    0.4175344281 -0.027027027027
C325       C    0.5198174239    0.5154921372    0.4684519057 -0.027027027027
C326       C    0.5398527462    0.5357430438    0.5001752754 -0.027027027027
C327       C    0.5195735115    0.5156119392    0.5318657117 -0.027027027027
C328       C    0.4792589545    0.4752299282    0.5318327782 -0.027027027027
C329       C    0.4592236323    0.4549790216    0.5001094085 -0.027027027027
C330       C    0.4795028670    0.4751101262    0.4684189722 -0.027027027027
H331       H    0.5348293250    0.5303943835    0.4449927516 -0.027027027027
H332       H    0.5344029440    0.5306009512    0.5553482401 -0.027027027027
H333       H    0.4642470535    0.4603276819    0.5552919324 -0.027027027027
H334       H    0.4646734345    0.4601211142    0.4449364438 -0.027027027027
C315       C    0.3655234306    0.0104890330    0.0838473770 -0.027027027027
C316       C    0.3835714744    0.0272036746    0.1168665876 -0.027027027027
C317       C    0.4268609348    0.0371285021    0.1246741959 -0.027027027027
C318       C    0.4521023513    0.0303386879    0.0994625937 -0.027027027027
C319       C    0.4340543075    0.0136240463    0.0664433831 -0.027027027027
C320       C    0.3907648471    0.0036992188    0.0586357748 -0.027027027027
H321       H    0.3334779859    0.0031420828    0.0780677189 -0.027027027027
H322       H    0.4402214026    0.0495009345    0.1491151453 -0.027027027027
H323       H    0.4841477960    0.0376856381    0.1052422518 -0.027027027027
H324       H    0.3774043793   -0.0086732136    0.0341948254 -0.027027027027
C305       C    0.3734653909    0.1622264334    0.1670339444 -0.027027027027
C306       C    0.3332539221    0.1217443416    0.1667918925 -0.027027027027
C307       C    0.2928813371    0.1213686884    0.1664418630 -0.027027027027
C308       C    0.2927202210    0.1614751269    0.1663338854 -0.027027027027
C309       C    0.3329316898    0.2019572188    0.1665759373 -0.027027027027
C310       C    0.3733042747    0.2023328720    0.1669259668 -0.027027027027
H311       H    0.4033515901    0.1625045144    0.1672930571 -0.027027027027
H312       H    0.2631156732    0.0914039760    0.1662626859 -0.027027027027
H313       H    0.2628340218    0.1611970459    0.1660747727 -0.027027027027
H314       H    0.4030699387    0.2322975844    0.1671051438 -0.027027027027
C295       C    0.3017821968   -0.0444498410    0.2352599849 -0.027027027027
C296       C    0.2833212711   -0.0229742224    0.2168725582 -0.027027027027
C297       C    0.2395118647   -0.0336240807    0.2235978151 -0.027027027027
C298       C    0.2141633840   -0.0657495577    0.2487104987 -0.027027027027
C299       C    0.2326243096   -0.0872251763    0.2670979253 -0.027027027027
C300       C    0.2764337160   -0.0765753180    0.2603726684 -0.027027027027
H301       H    0.3342125366   -0.0365661796    0.2302815480 -0.027027027027
H302       H    0.2258457667   -0.0177282411    0.2099877201 -0.027027027027
H303       H    0.1817330442   -0.0736332190    0.2536889356 -0.027027027027
H304       H    0.2900998140   -0.0924711575    0.2739827634 -0.027027027027
C285       C    0.6263713595    0.7881367486    0.8331575280 -0.027027027027
C286       C    0.6668217735    0.7886697096    0.8335466157 -0.027027027027
C287       C    0.7069549979    0.8292283164    0.8336782566 -0.027027027027
C288       C    0.7066378084    0.8692539622    0.8334208097 -0.027027027027
C289       C    0.6661873944    0.8687210012    0.8330317219 -0.027027027027
C290       C    0.6260541700    0.8281623944    0.8329000811 -0.027027027027
H291       H    0.5966623492    0.7581128449    0.8330600796 -0.027027027027
H292       H    0.7368975207    0.8296240958    0.8339662621 -0.027027027027
H293       H    0.7363468187    0.8992778660    0.8335182581 -0.027027027027
H294       H    0.5961116472    0.8277666150    0.8326120755 -0.027027027027
C275       C    0.7572166023    0.6966629632    0.7931388238 -0.027027027027
C276       C    0.7171084106    0.6939843235    0.7838200013 -0.027027027027
C277       C    0.7020645486    0.6843250127    0.7492454157 -0.027027027027
C278       C    0.7271288784    0.6773443417    0.7239896525 -0.027027027027
C279       C    0.7672370701    0.6800229815    0.7333084749 -0.027027027027
C280       C    0.7822809321    0.6896822923    0.7678830606 -0.027027027027
H281       H    0.7683529677    0.7038133621    0.8187329976 -0.027027027027
H282       H    0.6723761316    0.6823419874    0.7423465622 -0.027027027027
H283       H    0.7159925130    0.6701939428    0.6983954787 -0.027027027027
H284       H    0.8119693491    0.6916653176    0.7747819141 -0.027027027027
C265       C    0.5852214762    0.6481437412    0.9035981890 -0.027027027027
C266       C    0.6168907154    0.6440345471    0.8838477907 -0.027027027027
C267       C    0.6230834489    0.6077774898    0.8891571361 -0.027027027027
C268       C    0.5976069432    0.5756296268    0.9142168798 -0.027027027027
C269       C    0.5659377040    0.5797388210    0.9339672781 -0.027027027027
C270       C    0.5597449705    0.6159958782    0.9286579327 -0.027027027027
H271       H    0.5806372448    0.6749833810    0.8996678944 -0.027027027027
H272       H    0.6465251032    0.6047347315    0.8745381295 -0.027027027027
H273       H    0.6021911746    0.5487899870    0.9181471745 -0.027027027027
H274       H    0.5363033161    0.6190386365    0.9432769394 -0.027027027027
C255       C   -0.0912961959    0.2740487437    0.5408830903 -0.027027027027
C256       C   -0.0500581128    0.3105548566    0.5499394897 -0.027027027027
C257       C   -0.0341201572    0.3149570151    0.5841368081 -0.027027027027
C258       C   -0.0594202847    0.2828530607    0.6092777271 -0.027027027027
C259       C   -0.1006583678    0.2463469479    0.6002213277 -0.027027027027
C260       C   -0.1165963234    0.2419447894    0.5660240093 -0.027027027027
H261       H   -0.1030944227    0.2707900030    0.5155681923 -0.027027027027
H262       H   -0.0035953703    0.3419788494    0.5908414049 -0.027027027027
H263       H   -0.0476220579    0.2861118014    0.6345926251 -0.027027027027
H264       H   -0.1471211103    0.2149229551    0.5593194125 -0.027027027027
C245       C    0.0572721755    0.3246299154    0.4532798219 -0.027027027027
C246       C    0.0500520325    0.3605161030    0.4500156400 -0.027027027027
C247       C    0.0680522588    0.3895096176    0.4215861672 -0.027027027027
C248       C    0.0932726281    0.3826169447    0.3964208764 -0.027027027027
C249       C    0.1004927711    0.3467307571    0.3996850583 -0.027027027027
C250       C    0.0824925447    0.3177372424    0.4281145311 -0.027027027027
H251       H    0.0439473326    0.3031671837    0.4743250160 -0.027027027027
H252       H    0.0627085043    0.4160733637    0.4191691317 -0.027027027027
H253       H    0.1065974710    0.4040796763    0.3753756823 -0.027027027027
H254       H    0.0878362992    0.2911734964    0.4305315667 -0.027027027027
C235       C   -0.0002707441    0.4753908130    0.5316215118 -0.027027027027
C236       C   -0.0001693230    0.4551734067    0.4999365352 -0.027027027027
C237       C   -0.0002050096    0.4750750190    0.4682077862 -0.027027027027
C238       C   -0.0003421174    0.5151940377    0.4681640139 -0.027027027027
C239       C   -0.0004435385    0.5354114439    0.4998489905 -0.027027027027
C240       C   -0.0004078519    0.5155098316    0.5315777394 -0.027027027027
H241       H   -0.0002443268    0.4606584506    0.5551090272 -0.027027027027
H242       H   -0.0001299392    0.4601107966    0.4447536750 -0.027027027027
H243       H   -0.0003685348    0.5299264001    0.4446764984 -0.027027027027
H244       H   -0.0004829223    0.5304740540    0.5550318506 -0.027027027027
loop_
_geom_bond_atom_site_label_1
_geom_bond_atom_site_label_2
_geom_bond_distance
_geom_bond_site_symmetry_2
_ccdc_geom_bond_type
C510       H514 1.140       .   S
C507       H512 1.140       .   S
C508       H513 1.140       .   S
C505       H511 1.140       .   S
C555       C560 1.540       .   A
C560       H564 1.140       .   S
C559       C560 1.540       .   A
C248       C249 1.540       .   A
C247       C248 1.540       .   A
C248       H253 1.140       .   S
C566        C75 1.543       .   S
C566       C567 1.540       .   A
C565       C566 1.540       .   A
C567       C568 1.540       .   A
C567       H572 1.140       .   S
C565       C570 1.540       .   A
C565       H571 1.140       .   S
C568       C569 1.540       .   A
C568       H573 1.140       .   S
C569       C150 1.543       .   S
C569       C570 1.540       .   A
C246       C247 1.540       .   A
C247       H252 1.140       .   S
C246         C1 1.533       .   S
C245       C246 1.540       .   A
C245       C250 1.540       .   A
C245       H251 1.140       .   S
O139      Cu145 1.951       .   S
O138      Cu145 1.951       .   S
Cu145     Cu146 2.630       .   S
O140      Cu145 1.951       .   S
O137      Cu145 1.951       .   S
O144      Cu146 1.951       .   S
O141      Cu146 1.951       .   S
O142      Cu146 1.951       .   S
O143      Cu146 1.951       .   S
C376       C377 1.540       .   A
C375       C376 1.540       .   A
C376        C29 1.537       .   S
C457       H462 1.140       .   S
C488       C489 1.540       .   A
C489        C49 1.533       .   S
C489       C490 1.540       .   A
C455       H461 1.140       .   S
C460       H464 1.140       .   S
C488       H493 1.140       .   S
C487       C488 1.540       .   A
C338       H343 1.140       .   S
C337       H342 1.140       .   S
C335       H341 1.140       .   S
C340       H344 1.140       .   S
C479       C480 1.540       .   A
C478       C479 1.540       .   A
C479        C69 1.537       .   S
N98         C99 1.540       .   A
C97         N98 1.540       .   A
C296       C297 1.540       .   A
C297       C298 1.540       .   A
C297       H302 1.140       .   S
N92         C93 1.540       .   A
C91         N92 1.540       .   A
C89         N90 1.540       .   A
C85         N90 1.540       .   A
C91         N96 1.540       .   A
C95         N96 1.540       .   A
C93         N94 1.540       .   A
N94         C95 1.540       .   A
C665       C670 1.540       .   A
C665       C666 1.540       .   A
C665       H671 1.140       .   S
C667       H672 1.140       .   S
C666       C667 1.540       .   A
C667       C668 1.540       .   A
C666       C103 1.535       .   S
O166      Cu173 1.951       .   S
O166       C176 1.250       .   A
O167       C177 1.250       .   A
O167      Cu173 1.951       .   S
O165       C175 1.250       .   A
O165      Cu173 1.951       .   S
O168       C178 1.250       .   A
O168      Cu173 1.951       .   S
O169      Cu174 1.951       .   S
O169       C178 1.250       .   A
C669       C670 1.540       .   A
C669       C162 1.535       .   S
C668       C669 1.540       .   A
C668       H673 1.140       .   S
C45        C446 1.534       .   S
N44         C45 1.540       .   A
C45         N46 1.540       .   A
C47         N48 1.540       .   A
C456        C47 1.536       .   S
N46         C47 1.540       .   A
C41        C416 1.534       .   S
N40         C41 1.540       .   A
C41         N42 1.540       .   A
C43         N48 1.540       .   A
C43         N44 1.540       .   A
C43        C469 1.533       .   S
C640       H644 1.140       .   S
C235       C240 1.540       .   A
C235       C236 1.540       .   A
C235       H241 1.140       .   S
C637       H642 1.140       .   S
C49         N54 1.540       .   A
C49         N50 1.540       .   A
C635       H641 1.140       .   S
C589       C590 1.540       .   A
C590       H594 1.140       .   S
C585       C590 1.540       .   A
C597       H602 1.140       .   S
C597       C598 1.540       .   A
C596       C597 1.540       .   A
C596       C234 1.543   1_455   S
C595       C596 1.540       .   A
C595       C600 1.540       .   A
C595       H601 1.140       .   S
O210      Cu215 1.951       .   S
O209      Cu215 1.951       .   S
O208      Cu215 1.951       .   S
O207      Cu215 1.951       .   S
Cu215     Cu216 2.630       .   S
O211      Cu216 1.951       .   S
O212      Cu216 1.951       .   S
O213      Cu216 1.951       .   S
O214      Cu216 1.951       .   S
C598       H603 1.140       .   S
C598       C599 1.540       .   A
C285       H291 1.140       .   S
C288       H293 1.140       .   S
C287       H292 1.140       .   S
C290       H294 1.140       .   S
C348       H353 1.140       .   S
C348       C349 1.540       .   A
C347       C348 1.540       .   A
C349       C233 1.544       .   S
C349       C350 1.540       .   A
C15        C306 1.537       .   S
C15         N16 1.540       .   A
N14         C15 1.540       .   A
C310       H314 1.140       .   S
C305       C310 1.540       .   A
C309       C310 1.540       .   A
C339       C340 1.540       .   A
C335       C340 1.540       .   A
C346        C23 1.544       .   S
C346       C347 1.540       .   A
C345       C346 1.540       .   A
C347       H352 1.140       .   S
C615       C620 1.540       .   A
C615       H621 1.140       .   S
C615       C616 1.540       .   A
C487       H492 1.140       .   S
C485       H491 1.140       .   S
C490       H494 1.140       .   S
C617       C618 1.540       .   A
C617       H622 1.140       .   S
C616       C617 1.540       .   A
C17        C316 1.534       .   S
C315       C316 1.540       .   A
C316       C317 1.540       .   A
C526       C527 1.540       .   A
C525       C526 1.540       .   A
C526        C61 1.536       .   S
C527       H532 1.140       .   S
C527       C528 1.540       .   A
C525       C530 1.540       .   A
C525       H531 1.140       .   S
C519       C520 1.540       .   A
C515       C520 1.540       .   A
C520       H524 1.140       .   S
C287       C288 1.540       .   A
C288       C289 1.540       .   A
C286       C287 1.540       .   A
C285       C286 1.540       .   A
C286        C11 1.536       .   S
C285       C290 1.540       .   A
C249       C250 1.540       .   A
C249       C219 1.533       .   S
C528       H533 1.140       .   S
C528       C529 1.540       .   A
C529       C530 1.540       .   A
C529       C164 1.536   1_556   S
C449       C450 1.540       .   A
C448       C449 1.540       .   A
C449       C119 1.534   1_455   S
C448       H453 1.140       .   S
C447       C448 1.540       .   A
O109       C119 1.250       .   A
O116       C119 1.250       .   A
C445       C450 1.540       .   A
C445       C446 1.540       .   A
C445       H451 1.140       .   S
C446       C447 1.540       .   A
C447       H452 1.140       .   S
O172      Cu174 1.951       .   S
O172       C175 1.250       .   A
C440       H444 1.140       .   S
C439       C440 1.540       .   A
C435       C440 1.540       .   A
C420       H424 1.140       .   S
C417       H422 1.140       .   S
C418       H423 1.140       .   S
C415       H421 1.140       .   S
C380       H384 1.140       .   S
C378       H383 1.140       .   S
C377       H382 1.140       .   S
C375       H381 1.140       .   S
C239       C240 1.540       .   A
C240       H244 1.140       .   S
C540       H544 1.140       .   S
C535       H541 1.140       .   S
C538       H543 1.140       .   S
C537       H542 1.140       .   S
O222       C232 1.250       .   A
O227       C232 1.250       .   A
C639       C232 1.535       .   S
O223       C233 1.250       .   A
O226       C233 1.251       .   A
O221       C231 1.250       .   A
O228       C231 1.250       .   A
C231       C279 1.534       .   S
C236       C237 1.540       .   A
C236         C5 1.536       .   S
C237       H242 1.140       .   S
C237       C238 1.540       .   A
O225       C234 1.250       .   A
O224       C234 1.250       .   A
C295       C296 1.540       .   A
C295       H301 1.140       .   S
C295       C300 1.540       .   A
C238       H243 1.140       .   S
C238       C239 1.540       .   A
C95        C239 1.536   1_655   S
O126      Cu131 1.951       .   S
O126       C136 1.250       .   A
O127      Cu132 1.951       .   S
O127       C136 1.250       .   A
O124      Cu131 1.951       .   S
O124       C134 1.250       .   A
O125      Cu131 1.951       .   S
O125       C135 1.250       .   A
O123      Cu131 1.951       .   S
O123       C133 1.250       .   A
C655       H661 1.140       .   S
O128       C135 1.251       .   A
O128      Cu132 1.951       .   S
O129       C134 1.250       .   A
O129      Cu132 1.951       .   S
C628       C629 1.540       .   A
C629       C630 1.540       .   A
C176       C629 1.535   1_455   S
C628       H633 1.140       .   S
C627       C628 1.540       .   A
C658       H663 1.140       .   S
O171      Cu174 1.951       .   S
O170      Cu174 1.951       .   S
Cu173     Cu174 2.630       .   S
C620       H624 1.140       .   S
C619       C620 1.540       .   A
C625       H631 1.140       .   S
C625       C630 1.540       .   A
C625       C626 1.540       .   A
C627       H632 1.140       .   S
C626       C627 1.540       .   A
C93        C626 1.535       .   S
C327       H332 1.140       .   S
C325       H331 1.140       .   S
C330       H334 1.140       .   S
C17         N18 1.540       .   A
N16         C17 1.540       .   A
C37         N42 1.540       .   A
O193      Cu201 1.951       .   S
O193       C203 1.250       .   A
O197      Cu202 1.951       .   S
O197       C206 1.250       .   A
O196       C206 1.250       .   A
O196      Cu201 1.951       .   S
O195      Cu201 1.951       .   S
O195       C205 1.250       .   A
O194      Cu201 1.951       .   S
O194       C204 1.250       .   A
O199      Cu202 1.951       .   S
O199       C204 1.250       .   A
O198      Cu202 1.951       .   S
O198       C205 1.251       .   A
C577       H582 1.140       .   S
C328       H333 1.140       .   S
C250       H254 1.140       .   S
C497       C498 1.540       .   A
C498       H503 1.140       .   S
C498       C499 1.540       .   A
C499       C500 1.540       .   A
C134       C499 1.533       .   S
C496       C497 1.540       .   A
C495       C496 1.540       .   A
C53        C496 1.533       .   S
C497       H502 1.140       .   S
C495       C500 1.540       .   A
C495       H501 1.140       .   S
C485       C490 1.540       .   A
C509       C510 1.540       .   A
C505       C510 1.540       .   A
C657       C658 1.540       .   A
C658       C659 1.540       .   A
C659       C660 1.540       .   A
C659       C191 1.538   1_565   S
C307       C308 1.540       .   A
C308       H313 1.140       .   S
C308       C309 1.540       .   A
C309       C105 1.537       .   S
C306       C307 1.540       .   A
C305       C306 1.540       .   A
C655       C656 1.540       .   A
C655       C660 1.540       .   A
C656       C657 1.540       .   A
C97        C656 1.538       .   S
C657       H662 1.140       .   S
C645       C650 1.540       .   A
C650       H654 1.140       .   S
C649       C650 1.540       .   A
C300       H304 1.140       .   S
C299       C300 1.540       .   A
C516        C55 1.535       .   S
C516       C517 1.540       .   A
C515       C516 1.540       .   A
C39         N40 1.540       .   A
C610       H614 1.140       .   S
C605       H611 1.140       .   S
C608       H613 1.140       .   S
C607       H612 1.140       .   S
C587       H592 1.140       .   S
C588       H593 1.140       .   S
C585       H591 1.140       .   S
N38         C39 1.540       .   A
C39        C429 1.536       .   S
N34         C35 1.540       .   A
C35         N36 1.540       .   A
C35        C406 1.538       .   S
C37         N38 1.540       .   A
C37        C436 1.534       .   S
C31        C386 1.542       .   S
C31         N32 1.540       .   A
C31         N36 1.540       .   A
N32         C33 1.540       .   A
C33         N34 1.540       .   A
C33        C396 1.542       .   S
C399       C400 1.540       .   A
C400       H404 1.140       .   S
C395       C400 1.540       .   A
O140       C150 1.250       .   A
O141       C150 1.250       .   A
C405       H411 1.140       .   S
C405       C410 1.540       .   A
C405       C406 1.540       .   A
C407       C408 1.540       .   A
C407       H412 1.140       .   S
C406       C407 1.540       .   A
C408       C409 1.540       .   A
C409       C410 1.540       .   A
C87        C409 1.538       .   S
C408       H413 1.140       .   S
C71        C546 1.535       .   S
N70         C71 1.540       .   A
C71         N72 1.540       .   A
C395       H401 1.140       .   S
C395       C396 1.540       .   A
C397       C398 1.540       .   A
C397       H402 1.140       .   S
C396       C397 1.540       .   A
C398       C399 1.540       .   A
C217       C399 1.542   1_455   S
C398       H403 1.140       .   S
C648       H653 1.140       .   S
C458       H463 1.140       .   S
C500       H504 1.140       .   S
C450       H454 1.140       .   S
C276       C277 1.540       .   A
C276         C9 1.534       .   S
C275       C276 1.540       .   A
C277       H282 1.140       .   S
C277       C278 1.540       .   A
C275       H281 1.140       .   S
C275       C280 1.540       .   A
C269       C270 1.540       .   A
C270       H274 1.140       .   S
C265       C270 1.540       .   A
C278       H283 1.140       .   S
C278       C279 1.540       .   A
C279       C280 1.540       .   A
O228      Cu230 1.951       .   S
C475       C476 1.540       .   A
C476       C477 1.540       .   A
C476        C51 1.537       .   S
C477       C478 1.540       .   A
C477       H482 1.140       .   S
C579       C580 1.540       .   A
C218       C579 1.543       .   S
C578       C579 1.540       .   A
C577       C578 1.540       .   A
C578       H583 1.140       .   S
O221      Cu229 1.951       .   S
O223      Cu229 1.951       .   S
O222      Cu229 1.951       .   S
O225      Cu230 1.951       .   S
O224      Cu229 1.951       .   S
O227      Cu230 1.951       .   S
O226      Cu230 1.951       .   S
Cu131     Cu132 2.630       .   S
O130      Cu132 1.951       .   S
C370       H374 1.140       .   S
C367       H372 1.140       .   S
C368       H373 1.140       .   S
C365       H371 1.140       .   S
C570       H574 1.140       .   S
C470       H474 1.140       .   S
C465       H471 1.140       .   S
C468       H473 1.140       .   S
C467       H472 1.140       .   S
C204       C369 1.543       .   S
C368       C369 1.540       .   A
C369       C370 1.540       .   A
C609       C610 1.540       .   A
C605       C610 1.540       .   A
C105       N106 1.540       .   A
N106       C107 1.540       .   A
N104       C105 1.540       .   A
C103       N104 1.540       .   A
O179       C189 1.250       .   A
O179      Cu187 1.951       .   S
C97        N102 1.540       .   A
C101       N102 1.540       .   A
C85        C616 1.544       .   S
C99        N100 1.540       .   A
N100       C101 1.540       .   A
C618       C619 1.540       .   A
C618       H623 1.140       .   S
C619       C203 1.544   1_544   S
O171       C176 1.250       .   A
O170       C177 1.251       .   A
C107       N108 1.540       .   A
C103       N108 1.540       .   A
C11         N12 1.540       .   A
C7          N12 1.540       .   A
C9          N10 1.540       .   A
N10         C11 1.540       .   A
C366       C367 1.540       .   A
C367       C368 1.540       .   A
C13         N14 1.540       .   A
C13         N18 1.540       .   A
C79         N84 1.540       .   A
C599        C79 1.543       .   S
C79         N80 1.540       .   A
C645       H651 1.140       .   S
C73         N74 1.540       .   A
C576        C73 1.543       .   S
C73         N78 1.540       .   A
C647       H652 1.140       .   S
N74         C75 1.540       .   A
C75         N76 1.540       .   A
C329        C77 1.538       .   S
N76         C77 1.540       .   A
C77         N78 1.540       .   A
C255       H261 1.140       .   S
C390       H394 1.140       .   S
C385       C390 1.540       .   A
C389       C390 1.540       .   A
C355       H361 1.140       .   S
C355       C356 1.540       .   A
C355       C360 1.540       .   A
C356       C357 1.540       .   A
C357       C358 1.540       .   A
C357       H362 1.140       .   S
C356        C27 1.543       .   S
C350       H354 1.140       .   S
C345       C350 1.540       .   A
C260       H264 1.140       .   S
C149       C359 1.543   1_545   S
C359       C360 1.540       .   A
C358       C359 1.540       .   A
C358       H363 1.140       .   S
C257       H262 1.140       .   S
C258       H263 1.140       .   S
C679       C680 1.540       .   A
C680       H684 1.140       .   S
C675       C680 1.540       .   A
C678       H683 1.140       .   S
C83         N84 1.540       .   A
C586        C83 1.543       .   S
N82         C83 1.540       .   A
C530       H534 1.140       .   S
C535       C540 1.540       .   A
C535       C536 1.540       .   A
C537       C538 1.540       .   A
C536       C537 1.540       .   A
C536        C63 1.534       .   S
C148       C539 1.534       .   S
C538       C539 1.540       .   A
C539       C540 1.540       .   A
C438       C439 1.540       .   A
C438       H443 1.140       .   S
C437       C438 1.540       .   A
C147       C439 1.534   1_545   S
C517       H522 1.140       .   S
O113       C122 1.250       .   A
O112       C122 1.250       .   A
C589       C122 1.543   1_455   S
O110       C120 1.250       .   A
C120       C549 1.535   1_556   S
O115       C120 1.250       .   A
O111       C121 1.250       .   A
C121       C389 1.542   1_556   S
O114       C121 1.251       .   A
C435       C436 1.540       .   A
C435       H441 1.140       .   S
C436       C437 1.540       .   A
C660       H664 1.140       .   S
C305       H311 1.140       .   S
C425       H431 1.140       .   S
C428       H433 1.140       .   S
C458       C459 1.540       .   A
C459        C65 1.536       .   S
C459       C460 1.540       .   A
C430       H434 1.140       .   S
C258       C259 1.540       .   A
C257       C258 1.540       .   A
C91        C636 1.535       .   S
C259       C260 1.540       .   A
C192       C259 1.530   1_655   S
C99        C289 1.536       .   S
O210       C220 1.250       .   A
O211       C220 1.250       .   A
O212       C219 1.251       .   A
O213       C218 1.250       .   A
O214       C217 1.250       .   A
C548       H553 1.140       .   S
C547       C548 1.540       .   A
C548       C549 1.540       .   A
C220       C679 1.534       .   S
O130       C133 1.250       .   A
O137       C147 1.250       .   A
O139       C149 1.250       .   A
O138       C148 1.250       .   A
O157      Cu160 1.951       .   S
O156      Cu160 1.951       .   S
O155      Cu160 1.951       .   S
Cu159     Cu160 2.630       .   S
O158      Cu160 1.951       .   S
C57         N58 1.540       .   A
N58         C59 1.540       .   A
N56         C57 1.540       .   A
C55         N56 1.540       .   A
C320       H324 1.140       .   S
C53         N54 1.540       .   A
N52         C53 1.540       .   A
C51         N52 1.540       .   A
N50         C51 1.540       .   A
C317       H322 1.140       .   S
C256         C3 1.530       .   S
C255       C256 1.540       .   A
C256       C257 1.540       .   A
C268       C269 1.540       .   A
C268       H273 1.140       .   S
C267       C268 1.540       .   A
O180      Cu187 1.951       .   S
O181      Cu187 1.951       .   S
O182      Cu187 1.951       .   S
Cu187     Cu188 2.630       .   S
O144       C147 1.250       .   A
C636       C637 1.540       .   A
C635       C636 1.540       .   A
O142       C149 1.251       .   A
O143       C148 1.250       .   A
C475       C480 1.540       .   A
C480       H484 1.140       .   S
C485       C486 1.540       .   A
N2           C3 1.540       .   A
C1           N2 1.540       .   A
C486       C487 1.540       .   A
C486       C163 1.533       .   S
C319       C320 1.540       .   A
C318       C319 1.540       .   A
C319       C206 1.534   1_544   S
C466       C467 1.540       .   A
C467       C468 1.540       .   A
O110      Cu117 1.951       .   S
C205       C649 1.536       .   S
C648       C649 1.540       .   A
C647       C648 1.540       .   A
C646       C647 1.540       .   A
C645       C646 1.540       .   A
C101       C646 1.536       .   S
C315       C320 1.540       .   A
C315       H321 1.140       .   S
C317       C318 1.540       .   A
C635       C640 1.540       .   A
C639       C640 1.540       .   A
N28         C29 1.540       .   A
C27         N28 1.540       .   A
C630       H634 1.140       .   S
N22         C23 1.540       .   A
C21         N22 1.540       .   A
C19         N20 1.540       .   A
N20         C21 1.540       .   A
N26         C27 1.540       .   A
C25         N26 1.540       .   A
C23         N24 1.540       .   A
C19         N24 1.540       .   A
C326        C21 1.538       .   S
C25         N30 1.540       .   A
C366        C25 1.543       .   S
C575       H581 1.140       .   S
C29         N30 1.540       .   A
C580       H584 1.140       .   S
Cu229     Cu230 2.630       .   S
C298       H303 1.140       .   S
C255       C260 1.540       .   A
O155       C164 1.250       .   A
O154       C164 1.250       .   A
O157       C162 1.250       .   A
O152       C162 1.250       .   A
O156       C163 1.251       .   A
O153       C163 1.250       .   A
C269       C161 1.535   1_556   S
O151       C161 1.250       .   A
O158       C161 1.250       .   A
C469       C470 1.540       .   A
C468       C469 1.540       .   A
C365       C366 1.540       .   A
C365       C370 1.540       .   A
C360       H364 1.140       .   S
C509       C189 1.534   1_565   S
O186       C189 1.250       .   A
C265       H271 1.140       .   S
C265       C266 1.540       .   A
C267       H272 1.140       .   S
C266       C267 1.540       .   A
C266         C7 1.535       .   S
C508       C509 1.540       .   A
C507       C508 1.540       .   A
C465       C466 1.540       .   A
C465       C470 1.540       .   A
C455       C460 1.540       .   A
C505       C506 1.540       .   A
C506        C57 1.534       .   S
C506       C507 1.540       .   A
C638       H643 1.140       .   S
C429       C430 1.540       .   A
C425       C430 1.540       .   A
C558       H563 1.140       .   S
C557       H562 1.140       .   S
C555       H561 1.140       .   S
C307       H312 1.140       .   S
O207       C217 1.250       .   A
C437       H442 1.140       .   S
O208       C218 1.250       .   A
O209       C219 1.250       .   A
O109      Cu117 1.951       .   S
C599       C600 1.540       .   A
C600       H604 1.140       .   S
C607       C608 1.540       .   A
C606       C607 1.540       .   A
C89        C606 1.544       .   S
C605       C606 1.540       .   A
C135       C609 1.544   1_565   S
C608       C609 1.540       .   A
C65         N66 1.540       .   A
C61         N66 1.540       .   A
N64         C65 1.540       .   A
C63         N64 1.540       .   A
N62         C63 1.540       .   A
C61         N62 1.540       .   A
C55         N60 1.540       .   A
C59         N60 1.540       .   A
C67         N68 1.540       .   A
N68         C69 1.540       .   A
N8           C9 1.540       .   A
C3           N4 1.540       .   A
C1           N6 1.540       .   A
C7           N8 1.540       .   A
N4           C5 1.540       .   A
C5           N6 1.540       .   A
C69         N70 1.540       .   A
C559        C67 1.535       .   S
C67         N72 1.540       .   A
C325       C330 1.540       .   A
C325       C326 1.540       .   A
C326       C327 1.540       .   A
C327       C328 1.540       .   A
C328       C329 1.540       .   A
C329       C330 1.540       .   A
C345       H351 1.140       .   S
C427       H432 1.140       .   S
C289       C290 1.540       .   A
C336        C19 1.543       .   S
C296        C13 1.533       .   S
C339       C136 1.543       .   S
C519       C133 1.535       .   S
C428       C429 1.540       .   A
C427       C428 1.540       .   A
C415       C420 1.540       .   A
C419       C420 1.540       .   A
C426       C427 1.540       .   A
C426        C59 1.536       .   S
C425       C426 1.540       .   A
C318       H323 1.140       .   S
C677       H682 1.140       .   S
N80         C81 1.540       .   A
C379        C81 1.537       .   S
C81         N82 1.540       .   A
C675       H681 1.140       .   S
C85         N86 1.540       .   A
N86         C87 1.540       .   A
C87         N88 1.540       .   A
C518       H523 1.140       .   S
N88         C89 1.540       .   A
C515       H521 1.140       .   S
C556       C557 1.540       .   A
C557       C558 1.540       .   A
C556       C178 1.535   1_655   S
C555       C556 1.540       .   A
O200      Cu202 1.951       .   S
O200       C203 1.250       .   A
C545       C550 1.540       .   A
C549       C550 1.540       .   A
C550       H554 1.140       .   S
C558       C559 1.540       .   A
C466       C190 1.533   1_455   S
O154      Cu159 1.951       .   S
O153      Cu159 1.951       .   S
O152      Cu159 1.951       .   S
O151      Cu159 1.951       .   S
C545       C546 1.540       .   A
C545       H551 1.140       .   S
C546       C547 1.540       .   A
C547       H552 1.140       .   S
C678       C679 1.540       .   A
C677       C678 1.540       .   A
C670       H674 1.140       .   S
C107       C676 1.534       .   S
C676       C677 1.540       .   A
C675       C676 1.540       .   A
C575       C580 1.540       .   A
Cu201     Cu202 2.630       .   S
C585       C586 1.540       .   A
C586       C587 1.540       .   A
C587       C588 1.540       .   A
C588       C589 1.540       .   A
C280       H284 1.140       .   S
C475       H481 1.140       .   S
C299       C175 1.533   1_545   S
C177       C419 1.534       .   S
C379       C380 1.540       .   A
C378       C379 1.540       .   A
C377       C378 1.540       .   A
C375       C380 1.540       .   A
C478       H483 1.140       .   S
O182       C192 1.250       .   A
O183       C192 1.250       .   A
O181       C191 1.250       .   A
O184       C191 1.251       .   A
O180       C190 1.250       .   A
O185       C190 1.250       .   A
C575       C576 1.540       .   A
C576       C577 1.540       .   A
C298       C299 1.540       .   A
C518       C519 1.540       .   A
C517       C518 1.540       .   A
C456       C457 1.540       .   A
C455       C456 1.540       .   A
C457       C458 1.540       .   A
O113      Cu118 1.951       .   S
Cu117     Cu118 2.630       .   S
O116      Cu118 1.951       .   S
O115      Cu118 1.951       .   S
O114      Cu118 1.951       .   S
O111      Cu117 1.951       .   S
O112      Cu117 1.951       .   S
C385       H391 1.140       .   S
C387       H392 1.140       .   S
C388       H393 1.140       .   S
C410       H414 1.140       .   S
C637       C638 1.540       .   A
C638       C639 1.540       .   A
O183      Cu188 1.951       .   S
O184      Cu188 1.951       .   S
O185      Cu188 1.951       .   S
O186      Cu188 1.951       .   S
C337       C338 1.540       .   A
C336       C337 1.540       .   A
C335       C336 1.540       .   A
C338       C339 1.540       .   A
C416       C417 1.540       .   A
C415       C416 1.540       .   A
C417       C418 1.540       .   A
C418       C419 1.540       .   A
C386       C387 1.540       .   A
C385       C386 1.540       .   A
C387       C388 1.540       .   A
C388       C389 1.540       .   A
